@<TRIPOS>MOLECULE
*****
 38 43 0 0 0
SMALL
GASTEIGER

@<TRIPOS>ATOM
      1 C         139.2208  138.2250  164.9631 C.3     1  UNL1        0.0546
      2 C         138.3016  138.5959  166.0890 C.3     1  UNL1        0.0176
      3 C         139.1097  139.3110  167.1308 C.3     1  UNL1        0.0268
      4 C         139.0411  139.9822  168.4705 C.3     1  UNL1        0.0727
      5 N         140.4174  140.4682  168.8165 N.3     1  UNL1       -0.2693
      6 C         141.3366  140.0974  167.6907 C.3     1  UNL1        0.0809
      7 C         140.5284  139.3822  166.6489 C.3     1  UNL1        0.0863
      8 C         140.5971  138.7110  165.3092 C.3     1  UNL1        0.0257
      9 C         141.9471  139.4534  166.1669 C.2     1  UNL1        0.2264
     10 O         142.9514  138.4445  166.6398 O.2     1  UNL1       -0.2748
     11 N         142.3615  140.5334  165.2120 N.am    1  UNL1       -0.2750
     12 C         143.7802  140.6046  164.7300 C.3     1  UNL1        0.1000
     13 C         144.1945  141.6846  163.7752 C.3     1  UNL1        0.0670
     14 C         143.1903  142.6934  163.3022 C.ar    1  UNL1        0.0583
     15 N         143.6047  143.7735  162.3473 N.ar    1  UNL1       -0.2484
     16 C         142.6004  144.7823  161.8744 C.ar    1  UNL1        0.1023
     17 C         141.1817  144.7111  162.3564 C.ar    1  UNL1        0.0902
     18 C         140.7673  143.6311  163.3113 C.ar    1  UNL1        0.0040
     19 C         141.7716  142.6223  163.7842 C.ar    1  UNL1        0.0113
     20 C         141.3573  141.5423  164.7391 C.3     1  UNL1        0.1213
     21 C         140.1774  145.7200  161.8835 C.3     1  UNL1        0.4200
     22 F         139.1732  146.7288  161.4106 F       1  UNL1       -0.1658
     23 F         139.4583  145.6193  163.1960 F       1  UNL1       -0.1658
     24 F         140.8966  145.8207  160.5710 F       1  UNL1       -0.1658
     25 C         140.8061  141.1971  170.0686 C.3     1  UNL1        0.1173
     26 C         140.3222  142.4308  170.7714 C.3     1  UNL1        0.1606
     27 O         141.3559  142.2279  171.8393 O.3     1  UNL1       -0.3507
     28 C         141.8397  140.9942  171.1365 C.3     1  UNL1        0.1606
     29 N         138.8320  137.4962  163.7110 N.3     1  UNL1       -0.2975
     30 H         139.4380  136.6783  163.6462 H       1  UNL1        0.1232
     31 C         140.1498  138.1055  161.5565 C.3     1  UNL1        0.1591
     32 C         140.2202  138.8028  160.2303 C.3     1  UNL1        0.1729
     33 O         139.0431  139.5879  159.7324 O.3     1  UNL1       -0.3511
     34 C         137.7956  139.6759  160.5607 C.3     1  UNL1        0.1437
     35 C         137.7252  138.9786  161.8869 C.3     1  UNL1        0.0503
     36 C         138.9024  138.1934  162.3848 C.3     1  UNL1        0.0865
     37 C         142.6488  137.9991  162.2592 C.3     1  UNL1        0.1742
     38 O         141.3269  137.3203  162.0544 O.3     1  UNL1       -0.3496
@<TRIPOS>BOND
     1    37    38    1
     2    38    31    1
     3    31    32    1
     4    32    33    1
     5    33    34    1
     6    34    35    1
     7    35    36    1
     8    36    29    1
     9     1    29    1
    10     1     2    1
    11     3     2    1
    12     3     4    1
    13     4     5    1
    14     5    25    1
    15    25    26    1
    16    26    27    1
    17    27    28    1
    18     5     6    1
    19     6     7    1
    20     7     9    1
    21     9    10    2
    22     9    11   am
    23    11    12    1
    24    12    13    1
    25    13    14    1
    26    14    15   ar
    27    15    16   ar
    28    16    17   ar
    29    17    21    1
    30    21    22    1
    31    21    23    1
    32    21    24    1
    33    17    18   ar
    34    18    19   ar
    35    19    20    1
    36     7     8    1
    37    36    31    1
    38     8     1    1
    39     7     3    1
    40    20    11    1
    41    28    25    1
    42    19    14   ar
    43    29    30    1
@<TRIPOS>MOLECULE
*****
 38 43 0 0 0
SMALL
GASTEIGER

@<TRIPOS>ATOM
      1 C         144.0621  139.3921  164.9153 C.3     1  UNL1        0.0546
      2 C         143.6329  138.5625  166.0890 C.3     1  UNL1        0.0176
      3 C         143.0190  139.4795  167.1050 C.3     1  UNL1        0.0268
      4 C         142.3743  139.5335  168.4584 C.3     1  UNL1        0.0727
      5 N         142.0257  140.9632  168.7490 N.3     1  UNL1       -0.2693
      6 C         142.4550  141.7928  167.5754 C.3     1  UNL1        0.0809
      7 C         143.0688  140.8758  166.5593 C.3     1  UNL1        0.0863
      8 C         143.7135  140.8218  165.2060 C.3     1  UNL1        0.0257
      9 C         143.1187  142.2721  166.0136 C.2     1  UNL1        0.2264
     10 O         144.0624  143.2760  166.6067 O.2     1  UNL1       -0.2748
     11 N         142.2248  142.6646  164.8747 N.am    1  UNL1       -0.2750
     12 C         142.2747  144.0609  164.3290 C.3     1  UNL1        0.1000
     13 C         141.3808  144.4534  163.1901 C.3     1  UNL1        0.0670
     14 C         140.4372  143.4495  162.5970 C.ar    1  UNL1        0.0583
     15 N         139.5433  143.8420  161.4581 N.ar    1  UNL1       -0.2484
     16 C         138.5996  142.8382  160.8650 C.ar    1  UNL1        0.1023
     17 C         138.5498  141.4419  161.4108 C.ar    1  UNL1        0.0902
     18 C         139.4436  141.0494  162.5496 C.ar    1  UNL1        0.0040
     19 C         140.3873  142.0532  163.1427 C.ar    1  UNL1        0.0113
     20 C         141.2811  141.6608  164.2816 C.3     1  UNL1        0.1213
     21 C         137.6061  140.4380  160.8177 C.3     1  UNL1        0.4200
     22 F         136.6624  139.4342  160.2246 F       1  UNL1       -0.1658
     23 F         137.8594  141.0063  159.4528 F       1  UNL1       -0.1658
     24 F         137.3528  139.8697  162.1826 F       1  UNL1       -0.1658
     25 C         141.3641  141.4736  169.9947 C.3     1  UNL1        0.1173
     26 C         141.3944  141.0910  171.4448 C.3     1  UNL1        0.1606
     27 O         140.4284  142.1954  171.7564 O.3     1  UNL1       -0.3507
     28 C         140.3981  142.5780  170.3063 C.3     1  UNL1        0.1606
     29 N         144.7238  138.8817  163.6696 N.3     1  UNL1       -0.2975
     30 H         145.6142  139.3722  163.5870 H       1  UNL1        0.1232
     31 C         144.2525  140.2347  161.5023 C.3     1  UNL1        0.1591
     32 C         143.5609  140.3666  160.1778 C.3     1  UNL1        0.1729
     33 O         142.6490  139.2774  159.6961 O.3     1  UNL1       -0.3511
     34 C         142.4287  138.0563  160.5389 C.3     1  UNL1        0.1437
     35 C         143.1203  137.9243  161.8634 C.3     1  UNL1        0.0503
     36 C         144.0322  139.0136  162.3451 C.3     1  UNL1        0.0865
     37 C         144.7243  142.7562  161.9142 C.3     1  UNL1        0.1742
     38 O         145.1644  141.3239  161.9841 O.3     1  UNL1       -0.3496
@<TRIPOS>BOND
     1    37    38    1
     2    38    31    1
     3    31    32    1
     4    32    33    1
     5    33    34    1
     6    34    35    1
     7    35    36    1
     8    36    29    1
     9     1    29    1
    10     1     2    1
    11     3     2    1
    12     3     4    1
    13     4     5    1
    14     5    25    1
    15    25    26    1
    16    26    27    1
    17    27    28    1
    18     5     6    1
    19     6     7    1
    20     7     9    1
    21     9    10    2
    22     9    11   am
    23    11    12    1
    24    12    13    1
    25    13    14    1
    26    14    15   ar
    27    15    16   ar
    28    16    17   ar
    29    17    21    1
    30    21    22    1
    31    21    23    1
    32    21    24    1
    33    17    18   ar
    34    18    19   ar
    35    19    20    1
    36     7     8    1
    37    36    31    1
    38     8     1    1
    39     7     3    1
    40    20    11    1
    41    28    25    1
    42    19    14   ar
    43    29    30    1
@<TRIPOS>MOLECULE
*****
 38 43 0 0 0
SMALL
GASTEIGER

@<TRIPOS>ATOM
      1 C         141.9379  138.0998  164.6686 C.3     1  UNL1        0.0546
      2 C         142.9723  138.3372  165.7285 C.3     1  UNL1        0.0176
      3 C         142.3442  139.1618  166.8127 C.3     1  UNL1        0.0268
      4 C         142.5953  139.8182  168.1379 C.3     1  UNL1        0.0727
      5 N         141.3279  140.4961  168.5670 N.3     1  UNL1       -0.2693
      6 C         140.2935  140.2586  167.5071 C.3     1  UNL1        0.0809
      7 C         140.9215  139.4340  166.4229 C.3     1  UNL1        0.0863
      8 C         140.6704  138.7776  165.0977 C.3     1  UNL1        0.0257
      9 C         139.4989  139.7062  166.0329 C.2     1  UNL1        0.2264
     10 O         138.3766  139.2053  166.8929 O.2     1  UNL1       -0.2748
     11 N         139.1986  140.4793  164.7831 N.am    1  UNL1       -0.2750
     12 C         137.7760  140.7515  164.3931 C.3     1  UNL1        0.1000
     13 C         137.4757  141.5246  163.1433 C.3     1  UNL1        0.0670
     14 C         138.5981  142.0255  162.2834 C.ar    1  UNL1        0.0583
     15 N         138.2977  142.7987  161.0335 N.ar    1  UNL1       -0.2484
     16 C         139.4201  143.2996  160.1736 C.ar    1  UNL1        0.1023
     17 C         140.8427  143.0274  160.5636 C.ar    1  UNL1        0.0902
     18 C         141.1430  142.2543  161.8134 C.ar    1  UNL1        0.0040
     19 C         140.0207  141.7533  162.6733 C.ar    1  UNL1        0.0113
     20 C         140.3209  140.9803  163.9231 C.3     1  UNL1        0.1213
     21 C         141.9651  143.5283  159.7036 C.3     1  UNL1        0.4200
     22 F         143.0874  144.0292  158.8437 F       1  UNL1       -0.1658
     23 F         142.8804  142.5000  160.2993 F       1  UNL1       -0.1658
     24 F         141.0497  144.5565  159.1080 F       1  UNL1       -0.1658
     25 C         141.1297  141.2747  169.8338 C.3     1  UNL1        0.1173
     26 C         140.0909  142.2316  170.3391 C.3     1  UNL1        0.1606
     27 O         140.8494  142.3759  171.6251 O.3     1  UNL1       -0.3507
     28 C         141.8882  141.4190  171.1197 C.3     1  UNL1        0.1606
     29 N         142.1360  137.3211  163.4018 N.3     1  UNL1       -0.2975
     30 H         142.9953  136.7839  163.5178 H       1  UNL1        0.1232
     31 C         141.0346  138.2186  161.2267 C.3     1  UNL1        0.1591
     32 C         141.1468  138.9369  159.9146 C.3     1  UNL1        0.1729
     33 O         142.4726  139.4759  159.4657 O.3     1  UNL1       -0.3511
     34 C         143.6863  139.2968  160.3288 C.3     1  UNL1        0.1437
     35 C         143.5741  138.5785  161.6408 C.3     1  UNL1        0.0503
     36 C         142.2482  138.0394  162.0898 C.3     1  UNL1        0.0865
     37 C         138.4464  138.4155  161.3371 C.3     1  UNL1        0.1742
     38 O         139.7088  137.6795  161.6757 O.3     1  UNL1       -0.3496
@<TRIPOS>BOND
     1    37    38    1
     2    38    31    1
     3    31    32    1
     4    32    33    1
     5    33    34    1
     6    34    35    1
     7    35    36    1
     8    36    29    1
     9     1    29    1
    10     1     2    1
    11     3     2    1
    12     3     4    1
    13     4     5    1
    14     5    25    1
    15    25    26    1
    16    26    27    1
    17    27    28    1
    18     5     6    1
    19     6     7    1
    20     7     9    1
    21     9    10    2
    22     9    11   am
    23    11    12    1
    24    12    13    1
    25    13    14    1
    26    14    15   ar
    27    15    16   ar
    28    16    17   ar
    29    17    21    1
    30    21    22    1
    31    21    23    1
    32    21    24    1
    33    17    18   ar
    34    18    19   ar
    35    19    20    1
    36     7     8    1
    37    36    31    1
    38     8     1    1
    39     7     3    1
    40    20    11    1
    41    28    25    1
    42    19    14   ar
    43    29    30    1
@<TRIPOS>MOLECULE
*****
 38 43 0 0 0
SMALL
GASTEIGER

@<TRIPOS>ATOM
      1 C         138.8191  142.9865  165.0222 C.3     1  UNL1        0.0546
      2 C         139.6937  143.7083  166.0041 C.3     1  UNL1        0.0176
      3 C         140.3557  142.6830  166.8762 C.3     1  UNL1        0.0268
      4 C         141.3054  142.4954  168.0220 C.3     1  UNL1        0.0727
      5 N         141.4270  141.0240  168.2872 N.3     1  UNL1       -0.2693
      6 C         140.5524  140.3022  167.3053 C.3     1  UNL1        0.0809
      7 C         139.8903  141.3275  166.4332 C.3     1  UNL1        0.0863
      8 C         138.9406  141.5151  165.2875 C.3     1  UNL1        0.0257
      9 C         139.4249  139.9721  165.9903 C.2     1  UNL1        0.2264
     10 O         138.4657  139.1935  166.8410 O.2     1  UNL1       -0.2748
     11 N         139.9186  139.3953  164.6966 N.am    1  UNL1       -0.2750
     12 C         139.4532  138.0399  164.2537 C.3     1  UNL1        0.1000
     13 C         139.9470  137.4632  162.9601 C.3     1  UNL1        0.0670
     14 C         140.9061  138.2418  162.1094 C.ar    1  UNL1        0.0583
     15 N         141.3999  137.6650  160.8157 N.ar    1  UNL1       -0.2484
     16 C         142.3591  138.4436  159.9650 C.ar    1  UNL1        0.1023
     17 C         142.8245  139.7991  160.4080 C.ar    1  UNL1        0.0902
     18 C         142.3308  140.3758  161.7016 C.ar    1  UNL1        0.0040
     19 C         141.3716  139.5972  162.5523 C.ar    1  UNL1        0.0113
     20 C         140.8778  140.1739  163.8459 C.3     1  UNL1        0.1213
     21 C         143.7837  140.5777  159.5573 C.3     1  UNL1        0.4200
     22 F         144.7429  141.3563  158.7066 F       1  UNL1       -0.1658
     23 F         143.4595  139.6979  158.3865 F       1  UNL1       -0.1658
     24 F         144.1080  141.4575  160.7282 F       1  UNL1       -0.1658
     25 C         142.2744  140.3864  169.3481 C.3     1  UNL1        0.1173
     26 C         143.3067  140.8783  170.3188 C.3     1  UNL1        0.1606
     27 O         143.4728  139.4847  170.8484 O.3     1  UNL1       -0.3507
     28 C         142.4404  138.9929  169.8776 C.3     1  UNL1        0.1606
     29 N         137.9717  143.6241  163.9613 N.3     1  UNL1       -0.2975
     30 H         137.1089  143.0826  163.9086 H       1  UNL1        0.1232
     31 C         138.1554  142.7004  161.5400 C.3     1  UNL1        0.1591
     32 C         138.6754  142.8240  160.1385 C.3     1  UNL1        0.1729
     33 O         139.5317  143.9948  159.7567 O.3     1  UNL1       -0.3511
     34 C         139.8681  145.0422  160.7766 C.3     1  UNL1        0.1437
     35 C         139.3481  144.9186  162.1781 C.3     1  UNL1        0.0503
     36 C         138.4917  143.7477  162.5598 C.3     1  UNL1        0.0865
     37 C         137.7311  140.1373  161.5680 C.3     1  UNL1        0.1742
     38 O         137.2990  141.5296  161.9217 O.3     1  UNL1       -0.3496
@<TRIPOS>BOND
     1    37    38    1
     2    38    31    1
     3    31    32    1
     4    32    33    1
     5    33    34    1
     6    34    35    1
     7    35    36    1
     8    36    29    1
     9     1    29    1
    10     1     2    1
    11     3     2    1
    12     3     4    1
    13     4     5    1
    14     5    25    1
    15    25    26    1
    16    26    27    1
    17    27    28    1
    18     5     6    1
    19     6     7    1
    20     7     9    1
    21     9    10    2
    22     9    11   am
    23    11    12    1
    24    12    13    1
    25    13    14    1
    26    14    15   ar
    27    15    16   ar
    28    16    17   ar
    29    17    21    1
    30    21    22    1
    31    21    23    1
    32    21    24    1
    33    17    18   ar
    34    18    19   ar
    35    19    20    1
    36     7     8    1
    37    36    31    1
    38     8     1    1
    39     7     3    1
    40    20    11    1
    41    28    25    1
    42    19    14   ar
    43    29    30    1
@<TRIPOS>MOLECULE
*****
 38 43 0 0 0
SMALL
GASTEIGER

@<TRIPOS>ATOM
      1 C         144.3136  141.8635  164.6530 C.3     1  UNL1        0.0546
      2 C         144.0542  142.9222  165.6834 C.3     1  UNL1        0.0176
      3 C         143.3149  142.2876  166.8240 C.3     1  UNL1        0.0268
      4 C         142.6977  142.5497  168.1657 C.3     1  UNL1        0.0727
      5 N         142.1187  141.2609  168.6694 N.3     1  UNL1       -0.2693
      6 C         142.3781  140.2022  167.6389 C.3     1  UNL1        0.0809
      7 C         143.1174  140.8367  166.4984 C.3     1  UNL1        0.0863
      8 C         143.7346  140.5746  165.1566 C.3     1  UNL1        0.0257
      9 C         142.9199  139.3859  166.1728 C.2     1  UNL1        0.2264
     10 O         143.5392  138.3313  167.0413 O.2     1  UNL1       -0.2748
     11 N         142.1032  138.9896  164.9786 N.am    1  UNL1       -0.2750
     12 C         141.9057  137.5388  164.6530 C.3     1  UNL1        0.1000
     13 C         141.0891  137.1426  163.4588 C.3     1  UNL1        0.0670
     14 C         140.4698  138.1973  162.5903 C.ar    1  UNL1        0.0583
     15 N         139.6531  137.8010  161.3961 N.ar    1  UNL1       -0.2484
     16 C         139.0339  138.8556  160.5276 C.ar    1  UNL1        0.1023
     17 C         139.2314  140.3065  160.8533 C.ar    1  UNL1        0.0902
     18 C         140.0481  140.7027  162.0474 C.ar    1  UNL1        0.0040
     19 C         140.6673  139.6481  162.9159 C.ar    1  UNL1        0.0113
     20 C         141.4840  140.0443  164.1100 C.3     1  UNL1        0.1213
     21 C         138.6122  141.3611  159.9847 C.3     1  UNL1        0.4200
     22 F         137.9929  142.4158  159.1162 F       1  UNL1       -0.1658
     23 F         137.6863  140.3360  159.4001 F       1  UNL1       -0.1658
     24 F         139.5381  142.3863  160.5694 F       1  UNL1       -0.1658
     25 C         141.4055  141.0651  169.9744 C.3     1  UNL1        0.1173
     26 C         141.3185  141.8315  171.2609 C.3     1  UNL1        0.1606
     27 O         140.3970  140.7883  171.8200 O.3     1  UNL1       -0.3507
     28 C         140.4841  140.0219  170.5335 C.3     1  UNL1        0.1606
     29 N         145.0268  142.0593  163.3479 N.3     1  UNL1       -0.2975
     30 H         145.3903  143.0123  163.3511 H       1  UNL1        0.1232
     31 C         143.6313  143.0609  161.3987 C.3     1  UNL1        0.1591
     32 C         142.8916  142.8839  160.1059 C.3     1  UNL1        0.1729
     33 O         142.8075  141.5282  159.4694 O.3     1  UNL1       -0.3511
     34 C         143.4633  140.3495  160.1257 C.3     1  UNL1        0.1437
     35 C         144.2030  140.5265  161.4186 C.3     1  UNL1        0.0503
     36 C         144.2870  141.8823  162.0551 C.3     1  UNL1        0.0865
     37 C         142.5996  144.9042  162.9113 C.3     1  UNL1        0.1742
     38 O         143.7153  144.4165  162.0352 O.3     1  UNL1       -0.3496
@<TRIPOS>BOND
     1    37    38    1
     2    38    31    1
     3    31    32    1
     4    32    33    1
     5    33    34    1
     6    34    35    1
     7    35    36    1
     8    36    29    1
     9     1    29    1
    10     1     2    1
    11     3     2    1
    12     3     4    1
    13     4     5    1
    14     5    25    1
    15    25    26    1
    16    26    27    1
    17    27    28    1
    18     5     6    1
    19     6     7    1
    20     7     9    1
    21     9    10    2
    22     9    11   am
    23    11    12    1
    24    12    13    1
    25    13    14    1
    26    14    15   ar
    27    15    16   ar
    28    16    17   ar
    29    17    21    1
    30    21    22    1
    31    21    23    1
    32    21    24    1
    33    17    18   ar
    34    18    19   ar
    35    19    20    1
    36     7     8    1
    37    36    31    1
    38     8     1    1
    39     7     3    1
    40    20    11    1
    41    28    25    1
    42    19    14   ar
    43    29    30    1
@<TRIPOS>MOLECULE
*****
 38 43 0 0 0
SMALL
GASTEIGER

@<TRIPOS>ATOM
      1 C         139.9672  138.2614  164.7178 C.3     1  UNL1        0.0546
      2 C         138.9325  138.7664  165.6791 C.3     1  UNL1        0.0176
      3 C         139.6449  139.4221  166.8248 C.3     1  UNL1        0.0268
      4 C         139.4457  140.1395  168.1270 C.3     1  UNL1        0.0727
      5 N         140.7977  140.4830  168.6785 N.3     1  UNL1       -0.2693
      6 C         141.8325  139.9779  167.7172 C.3     1  UNL1        0.0809
      7 C         141.1201  139.3222  166.5716 C.3     1  UNL1        0.0863
      8 C         141.3192  138.6049  165.2694 C.3     1  UNL1        0.0257
      9 C         142.5951  139.2224  166.3183 C.2     1  UNL1        0.2264
     10 O         143.4561  138.3882  167.2199 O.2     1  UNL1       -0.2748
     11 N         143.2092  139.9566  165.1634 N.am    1  UNL1       -0.2750
     12 C         144.6843  139.8568  164.9101 C.3     1  UNL1        0.1000
     13 C         145.2983  140.5910  163.7552 C.3     1  UNL1        0.0670
     14 C         144.4373  141.4251  162.8536 C.ar    1  UNL1        0.0583
     15 N         145.0514  142.1594  161.6987 N.ar    1  UNL1       -0.2484
     16 C         144.1904  142.9935  160.7971 C.ar    1  UNL1        0.1023
     17 C         142.7153  143.0934  161.0504 C.ar    1  UNL1        0.0902
     18 C         142.1012  142.3591  162.2053 C.ar    1  UNL1        0.0040
     19 C         142.9622  141.5250  163.1069 C.ar    1  UNL1        0.0113
     20 C         142.3482  140.7908  164.2618 C.3     1  UNL1        0.1213
     21 C         141.8543  143.9275  160.1488 C.3     1  UNL1        0.4200
     22 F         140.9932  144.7616  159.2472 F       1  UNL1       -0.1658
     23 F         141.4042  144.7378  161.3282 F       1  UNL1       -0.1658
     24 F         142.3043  143.1173  158.9694 F       1  UNL1       -0.1658
     25 C         141.0675  141.2048  169.9655 C.3     1  UNL1        0.1173
     26 C         142.0124  141.0084  171.1138 C.3     1  UNL1        0.1606
     27 O         141.4491  142.2256  171.7855 O.3     1  UNL1       -0.3507
     28 C         140.5042  142.4220  170.6371 C.3     1  UNL1        0.1606
     29 N         139.6974  137.5395  163.4309 N.3     1  UNL1       -0.2975
     30 H         140.0819  136.6004  163.5338 H       1  UNL1        0.1232
     31 C         139.3542  138.9394  161.2693 C.3     1  UNL1        0.1591
     32 C         139.8857  139.4856  159.9773 C.3     1  UNL1        0.1729
     33 O         141.2918  139.1783  159.5550 O.3     1  UNL1       -0.3511
     34 C         142.1665  138.3246  160.4246 C.3     1  UNL1        0.1437
     35 C         141.6350  137.7783  161.7166 C.3     1  UNL1        0.0503
     36 C         140.2289  138.0857  162.1389 C.3     1  UNL1        0.0865
     37 C         137.6621  140.4679  162.5145 C.3     1  UNL1        0.1742
     38 O         137.9482  139.2467  161.6916 O.3     1  UNL1       -0.3496
@<TRIPOS>BOND
     1    37    38    1
     2    38    31    1
     3    31    32    1
     4    32    33    1
     5    33    34    1
     6    34    35    1
     7    35    36    1
     8    36    29    1
     9     1    29    1
    10     1     2    1
    11     3     2    1
    12     3     4    1
    13     4     5    1
    14     5    25    1
    15    25    26    1
    16    26    27    1
    17    27    28    1
    18     5     6    1
    19     6     7    1
    20     7     9    1
    21     9    10    2
    22     9    11   am
    23    11    12    1
    24    12    13    1
    25    13    14    1
    26    14    15   ar
    27    15    16   ar
    28    16    17   ar
    29    17    21    1
    30    21    22    1
    31    21    23    1
    32    21    24    1
    33    17    18   ar
    34    18    19   ar
    35    19    20    1
    36     7     8    1
    37    36    31    1
    38     8     1    1
    39     7     3    1
    40    20    11    1
    41    28    25    1
    42    19    14   ar
    43    29    30    1
@<TRIPOS>MOLECULE
*****
 38 43 0 0 0
SMALL
GASTEIGER

@<TRIPOS>ATOM
      1 C         138.5231  141.9830  160.0146 C.3     1  UNL1        0.0546
      2 C         138.0156  140.6260  159.6258 C.3     1  UNL1        0.0176
      3 C         139.0993  139.9281  158.8587 C.3     1  UNL1        0.0268
      4 C         139.4554  138.6581  158.1444 C.3     1  UNL1        0.0727
      5 N         140.8528  138.7987  157.6176 N.3     1  UNL1       -0.2693
      6 C         141.3604  140.1556  158.0063 C.3     1  UNL1        0.0809
      7 C         140.2767  140.8536  158.7734 C.3     1  UNL1        0.0863
      8 C         139.9205  142.1236  159.4878 C.3     1  UNL1        0.0257
      9 C         141.4539  141.7792  158.6881 C.2     1  UNL1        0.2264
     10 O         141.5773  142.7315  157.5358 O.2     1  UNL1       -0.2748
     11 N         142.5079  141.7524  159.7552 N.am    1  UNL1       -0.2750
     12 C         143.6852  142.6779  159.6699 C.3     1  UNL1        0.1000
     13 C         144.7391  142.6511  160.7369 C.3     1  UNL1        0.0670
     14 C         144.6157  141.6988  161.8892 C.ar    1  UNL1        0.0583
     15 N         145.6696  141.6720  162.9563 N.ar    1  UNL1       -0.2484
     16 C         145.5462  140.7196  164.1085 C.ar    1  UNL1        0.1023
     17 C         144.3689  139.7941  164.1938 C.ar    1  UNL1        0.0902
     18 C         143.3150  139.8209  163.1268 C.ar    1  UNL1        0.0040
     19 C         143.4384  140.7732  161.9745 C.ar    1  UNL1        0.0113
     20 C         142.3845  140.8000  160.9075 C.3     1  UNL1        0.1213
     21 C         144.2455  138.8417  165.3461 C.3     1  UNL1        0.4200
     22 F         144.1221  137.8893  166.4984 F       1  UNL1       -0.1658
     23 F         142.7615  139.0594  165.3671 F       1  UNL1       -0.1658
     24 F         145.7294  138.6240  165.3251 F       1  UNL1       -0.1658
     25 C         141.6098  137.7641  156.8387 C.3     1  UNL1        0.1173
     26 C         141.2308  136.6429  155.9171 C.3     1  UNL1        0.1606
     27 O         142.6802  136.3008  155.7372 O.3     1  UNL1       -0.3507
     28 C         143.0590  137.4220  156.6589 C.3     1  UNL1        0.1606
     29 N         137.7662  143.0176  160.7934 N.3     1  UNL1       -0.2975
     30 H         137.9301  143.9122  160.3315 H       1  UNL1        0.1232
     31 C         138.6412  144.5215  162.7228 C.3     1  UNL1        0.1591
     32 C         138.9339  144.7263  164.1797 C.3     1  UNL1        0.1729
     33 O         138.6444  143.6321  165.1639 O.3     1  UNL1       -0.3511
     34 C         138.0621  142.3329  164.6913 C.3     1  UNL1        0.1437
     35 C         137.7693  142.1281  163.2345 C.3     1  UNL1        0.0503
     36 C         138.0589  143.2224  162.2503 C.3     1  UNL1        0.0865
     37 C         140.2350  145.6324  160.9978 C.3     1  UNL1        0.1742
     38 O         138.9307  145.6157  161.7386 O.3     1  UNL1       -0.3496
@<TRIPOS>BOND
     1    37    38    1
     2    38    31    1
     3    31    32    1
     4    32    33    1
     5    33    34    1
     6    34    35    1
     7    35    36    1
     8    36    29    1
     9     1    29    1
    10     1     2    1
    11     3     2    1
    12     3     4    1
    13     4     5    1
    14     5    25    1
    15    25    26    1
    16    26    27    1
    17    27    28    1
    18     5     6    1
    19     6     7    1
    20     7     9    1
    21     9    10    2
    22     9    11   am
    23    11    12    1
    24    12    13    1
    25    13    14    1
    26    14    15   ar
    27    15    16   ar
    28    16    17   ar
    29    17    21    1
    30    21    22    1
    31    21    23    1
    32    21    24    1
    33    17    18   ar
    34    18    19   ar
    35    19    20    1
    36     7     8    1
    37    36    31    1
    38     8     1    1
    39     7     3    1
    40    20    11    1
    41    28    25    1
    42    19    14   ar
    43    29    30    1
@<TRIPOS>MOLECULE
*****
 38 43 0 0 0
SMALL
GASTEIGER

@<TRIPOS>ATOM
      1 C         140.0650  140.8456  158.7709 C.3     1  UNL1        0.0546
      2 C         139.5234  139.8043  157.8370 C.3     1  UNL1        0.0176
      3 C         140.5718  138.7453  157.6652 C.3     1  UNL1        0.0268
      4 C         140.8850  137.4473  156.9819 C.3     1  UNL1        0.0727
      5 N         142.2681  137.0319  157.3874 N.3     1  UNL1       -0.2693
      6 C         142.8097  138.0732  158.3213 C.3     1  UNL1        0.0809
      7 C         141.7614  139.1322  158.4931 C.3     1  UNL1        0.0863
      8 C         141.4482  140.4302  159.1764 C.3     1  UNL1        0.0257
      9 C         142.9509  139.5190  159.3208 C.2     1  UNL1        0.2264
     10 O         144.2403  139.8936  158.6520 O.2     1  UNL1       -0.2748
     11 N         142.8512  139.5314  160.8175 N.am    1  UNL1       -0.2750
     12 C         144.0407  139.9182  161.6453 C.3     1  UNL1        0.1000
     13 C         143.9409  139.9306  163.1419 C.3     1  UNL1        0.0670
     14 C         142.6516  139.5560  163.8107 C.ar    1  UNL1        0.0583
     15 N         142.5518  139.5683  165.3074 N.ar    1  UNL1       -0.2484
     16 C         141.2625  139.1938  165.9762 C.ar    1  UNL1        0.1023
     17 C         140.0729  138.8069  165.1483 C.ar    1  UNL1        0.0902
     18 C         140.1727  138.7946  163.6517 C.ar    1  UNL1        0.0040
     19 C         141.4620  139.1691  162.9829 C.ar    1  UNL1        0.0113
     20 C         141.5618  139.1568  161.4863 C.3     1  UNL1        0.1213
     21 C         138.7835  138.4323  165.8171 C.3     1  UNL1        0.4200
     22 F         137.4942  138.0578  166.4859 F       1  UNL1       -0.1658
     23 F         138.8404  139.6907  166.6315 F       1  UNL1       -0.1658
     24 F         138.7267  137.1739  165.0028 F       1  UNL1       -0.1658
     25 C         142.9839  135.7926  156.9378 C.3     1  UNL1        0.1173
     26 C         143.3025  134.4664  157.5620 C.3     1  UNL1        0.1606
     27 O         143.9962  134.0401  156.3021 O.3     1  UNL1       -0.3507
     28 C         143.6775  135.3665  155.6781 C.3     1  UNL1        0.1606
     29 N         139.3492  142.0848  159.2205 N.3     1  UNL1       -0.2975
     30 H         140.0231  142.8488  159.1701 H       1  UNL1        0.1232
     31 C         138.7630  143.4187  161.3715 C.3     1  UNL1        0.1591
     32 C         138.1464  143.4747  162.7377 C.3     1  UNL1        0.1729
     33 O         137.4992  142.2528  163.3192 O.3     1  UNL1       -0.3511
     34 C         137.4687  140.9748  162.5343 C.3     1  UNL1        0.1437
     35 C         138.0854  140.9188  161.1681 C.3     1  UNL1        0.0503
     36 C         138.7325  142.1408  160.5867 C.3     1  UNL1        0.0865
     37 C         139.8938  145.7354  161.6943 C.3     1  UNL1        0.1742
     38 O         139.4102  144.6406  160.7901 O.3     1  UNL1       -0.3496
@<TRIPOS>BOND
     1    37    38    1
     2    38    31    1
     3    31    32    1
     4    32    33    1
     5    33    34    1
     6    34    35    1
     7    35    36    1
     8    36    29    1
     9     1    29    1
    10     1     2    1
    11     3     2    1
    12     3     4    1
    13     4     5    1
    14     5    25    1
    15    25    26    1
    16    26    27    1
    17    27    28    1
    18     5     6    1
    19     6     7    1
    20     7     9    1
    21     9    10    2
    22     9    11   am
    23    11    12    1
    24    12    13    1
    25    13    14    1
    26    14    15   ar
    27    15    16   ar
    28    16    17   ar
    29    17    21    1
    30    21    22    1
    31    21    23    1
    32    21    24    1
    33    17    18   ar
    34    18    19   ar
    35    19    20    1
    36     7     8    1
    37    36    31    1
    38     8     1    1
    39     7     3    1
    40    20    11    1
    41    28    25    1
    42    19    14   ar
    43    29    30    1
@<TRIPOS>MOLECULE
*****
 38 43 0 0 0
SMALL
GASTEIGER

@<TRIPOS>ATOM
      1 C         138.9107  142.0562  160.0047 C.3     1  UNL1        0.0546
      2 C         139.6766  142.3502  158.7489 C.3     1  UNL1        0.0176
      3 C         140.4636  141.1252  158.3885 C.3     1  UNL1        0.0268
      4 C         141.4234  140.5497  157.3897 C.3     1  UNL1        0.0727
      5 N         141.7371  139.1430  157.8054 N.3     1  UNL1       -0.2693
      6 C         140.9713  138.8491  159.0612 C.3     1  UNL1        0.0809
      7 C         140.1842  140.0741  159.4216 C.3     1  UNL1        0.0863
      8 C         139.2244  140.6495  160.4204 C.3     1  UNL1        0.0257
      9 C         139.9047  139.0231  160.4547 C.2     1  UNL1        0.2264
     10 O         139.0479  137.8412  160.1095 O.2     1  UNL1       -0.2748
     11 N         140.4821  139.1538  161.8329 N.am    1  UNL1       -0.2750
     12 C         140.2027  138.1028  162.8660 C.3     1  UNL1        0.1000
     13 C         140.7801  138.2337  164.2442 C.3     1  UNL1        0.0670
     14 C         141.6369  139.4155  164.5893 C.ar    1  UNL1        0.0583
     15 N         142.2143  139.5463  165.9676 N.ar    1  UNL1       -0.2484
     16 C         143.0711  140.7281  166.3128 C.ar    1  UNL1        0.1023
     17 C         143.3506  141.7791  165.2796 C.ar    1  UNL1        0.0902
     18 C         142.7732  141.6483  163.9014 C.ar    1  UNL1        0.0040
     19 C         141.9164  140.4665  163.5563 C.ar    1  UNL1        0.0113
     20 C         141.3390  140.3357  162.1781 C.3     1  UNL1        0.1213
     21 C         144.2074  142.9609  165.6248 C.3     1  UNL1        0.4200
     22 F         145.0643  144.1428  165.9699 F       1  UNL1       -0.1658
     23 F         143.7994  142.8368  167.0629 F       1  UNL1       -0.1658
     24 F         144.6154  143.0851  164.1867 F       1  UNL1       -0.1658
     25 C         142.6555  138.1965  157.0908 C.3     1  UNL1        0.1173
     26 C         142.9415  136.7266  157.1789 C.3     1  UNL1        0.1606
     27 O         143.9543  136.8578  156.0802 O.3     1  UNL1       -0.3507
     28 C         143.6683  138.3277  155.9922 C.3     1  UNL1        0.1606
     29 N         137.9923  143.0028  160.7193 N.3     1  UNL1       -0.2975
     30 H         138.0749  143.9043  160.2495 H       1  UNL1        0.1232
     31 C         138.7302  144.5727  162.6535 C.3     1  UNL1        0.1591
     32 C         138.9119  144.8304  164.1199 C.3     1  UNL1        0.1729
     33 O         138.5375  143.7758  165.1188 O.3     1  UNL1       -0.3511
     34 C         137.9813  142.4635  164.6512 C.3     1  UNL1        0.1437
     35 C         137.7996  142.2058  163.1847 C.3     1  UNL1        0.0503
     36 C         138.1740  143.2605  162.1858 C.3     1  UNL1        0.0865
     37 C         140.4159  145.5431  160.9311 C.3     1  UNL1        0.1742
     38 O         139.1046  145.6272  161.6546 O.3     1  UNL1       -0.3496
@<TRIPOS>BOND
     1    37    38    1
     2    38    31    1
     3    31    32    1
     4    32    33    1
     5    33    34    1
     6    34    35    1
     7    35    36    1
     8    36    29    1
     9     1    29    1
    10     1     2    1
    11     3     2    1
    12     3     4    1
    13     4     5    1
    14     5    25    1
    15    25    26    1
    16    26    27    1
    17    27    28    1
    18     5     6    1
    19     6     7    1
    20     7     9    1
    21     9    10    2
    22     9    11   am
    23    11    12    1
    24    12    13    1
    25    13    14    1
    26    14    15   ar
    27    15    16   ar
    28    16    17   ar
    29    17    21    1
    30    21    22    1
    31    21    23    1
    32    21    24    1
    33    17    18   ar
    34    18    19   ar
    35    19    20    1
    36     7     8    1
    37    36    31    1
    38     8     1    1
    39     7     3    1
    40    20    11    1
    41    28    25    1
    42    19    14   ar
    43    29    30    1
