@<TRIPOS>MOLECULE
*****
 26 28 0 0 0
SMALL
GASTEIGER

@<TRIPOS>ATOM
      1 C         140.6478  137.9826  164.2032 C.ar    1  UNL1        0.1453
      2 C         141.8681  138.5190  164.8912 C.ar    1  UNL1        0.0372
      3 C         141.7242  139.3716  166.1168 C.ar    1  UNL1        0.0002
      4 C         140.3602  139.6878  166.6547 C.ar    1  UNL1       -0.0078
      5 C         139.1399  139.1514  165.9668 C.ar    1  UNL1        0.0002
      6 C         139.2837  138.2987  164.7411 C.ar    1  UNL1        0.0372
      7 C         140.2163  140.5404  167.8804 C.3     1  UNL1        0.0772
      8 C         139.3542  140.2364  169.0696 C.3     1  UNL1        0.0221
      9 C         139.5144  141.3548  170.0563 C.3     1  UNL1        0.0268
     10 C         140.4756  142.3500  169.4768 C.3     1  UNL1        0.1315
     11 N         140.9094  141.8466  168.1320 N.3     1  UNL1       -0.2890
     12 H         141.9201  141.7095  168.1232 H       1  UNL1        0.1239
     13 C         140.9242  143.6247  170.1278 C.2     1  UNL1        0.2336
     14 N         139.9709  144.7752  170.2600 N.am    1  UNL1       -0.3277
     15 O         142.3261  143.7490  170.6465 O.2     1  UNL1       -0.2739
     16 H         139.0507  144.6937  169.9196 H       1  UNL1        0.1450
     17 H         140.2653  145.6119  170.6873 H       1  UNL1        0.1450
     18 O         140.7916  137.1300  162.9775 O.3     1  UNL1       -0.4528
     19 C         140.2845  138.3945  160.7653 C.ar    1  UNL1        0.1029
     20 C         140.7587  139.0038  159.4793 C.ar    1  UNL1        0.0134
     21 C         142.2141  138.9579  159.1194 C.ar    1  UNL1        0.0009
     22 C         143.1954  138.3027  160.0456 C.ar    1  UNL1        0.0032
     23 C         142.7212  137.6934  161.3316 C.ar    1  UNL1        0.0382
     24 C         141.2658  137.7393  161.6915 C.ar    1  UNL1        0.1548
     25 N         137.3736  138.4863  161.4851 N.1     1  UNL1       -0.1907
     26 C         138.8290  138.4404  161.1252 C.1     1  UNL1        0.1035
@<TRIPOS>BOND
     1    25    26    3
     2    26    19    1
     3    19    20   ar
     4    20    21   ar
     5    21    22   ar
     6    22    23   ar
     7    23    24   ar
     8    24    18    1
     9    18     1    1
    10     1     2   ar
    11     2     3   ar
    12     3     4   ar
    13     7     4    1
    14     7     8    1
    15     8     9    1
    16     9    10    1
    17    10    13    1
    18    13    14   am
    19    13    15    2
    20    10    11    1
    21     4     5   ar
    22     5     6   ar
    23    24    19   ar
    24     6     1   ar
    25    11     7    1
    26    14    16    1
    27    14    17    1
    28    11    12    1
@<TRIPOS>MOLECULE
*****
 26 28 0 0 0
SMALL
GASTEIGER

@<TRIPOS>ATOM
      1 C         142.5996  143.8770  163.7773 C.ar    1  UNL1        0.1453
      2 C         143.7795  143.5565  164.6462 C.ar    1  UNL1        0.0372
      3 C         143.5942  142.7423  165.8923 C.ar    1  UNL1        0.0002
      4 C         142.2289  142.2486  166.2694 C.ar    1  UNL1       -0.0078
      5 C         141.0490  142.5691  165.4005 C.ar    1  UNL1        0.0002
      6 C         141.2343  143.3833  164.1544 C.ar    1  UNL1        0.0372
      7 C         142.0436  141.4344  167.5155 C.3     1  UNL1        0.0772
      8 C         142.6801  140.1072  167.8044 C.3     1  UNL1        0.0221
      9 C         142.2190  139.6570  169.1589 C.3     1  UNL1        0.0268
     10 C         141.2976  140.7060  169.7072 C.3     1  UNL1        0.1315
     11 N         141.1891  141.8045  168.6915 N.3     1  UNL1       -0.2890
     12 H         141.5166  142.6823  169.0947 H       1  UNL1        0.1239
     13 C         140.6060  140.6639  171.0376 C.2     1  UNL1        0.2336
     14 N         139.8254  139.4475  171.4389 N.am    1  UNL1       -0.3277
     15 O         140.6950  141.8382  171.9666 O.2     1  UNL1       -0.2739
     16 H         139.7670  138.6768  170.8292 H       1  UNL1        0.1450
     17 H         139.3715  139.4199  172.3121 H       1  UNL1        0.1450
     18 O         142.7849  144.6912  162.5312 O.3     1  UNL1       -0.4528
     19 C         141.3497  144.4924  160.3746 C.ar    1  UNL1        0.1029
     20 C         141.1033  143.8735  159.0307 C.ar    1  UNL1        0.0134
     21 C         142.0456  142.8343  158.4994 C.ar    1  UNL1        0.0009
     22 C         143.2343  142.4141  159.3120 C.ar    1  UNL1        0.0032
     23 C         143.4807  143.0331  160.6559 C.ar    1  UNL1        0.0382
     24 C         142.5384  144.0722  161.1872 C.ar    1  UNL1        0.1548
     25 N         139.4652  146.5708  161.4372 N.1     1  UNL1       -0.1907
     26 C         140.4075  145.5316  160.9059 C.1     1  UNL1        0.1035
@<TRIPOS>BOND
     1    25    26    3
     2    26    19    1
     3    19    20   ar
     4    20    21   ar
     5    21    22   ar
     6    22    23   ar
     7    23    24   ar
     8    24    18    1
     9    18     1    1
    10     1     2   ar
    11     2     3   ar
    12     3     4   ar
    13     7     4    1
    14     7     8    1
    15     8     9    1
    16     9    10    1
    17    10    13    1
    18    13    14   am
    19    13    15    2
    20    10    11    1
    21     4     5   ar
    22     5     6   ar
    23    24    19   ar
    24     6     1   ar
    25    11     7    1
    26    14    16    1
    27    14    17    1
    28    11    12    1
@<TRIPOS>MOLECULE
*****
 26 28 0 0 0
SMALL
GASTEIGER

@<TRIPOS>ATOM
      1 C         140.2763  138.1428  164.1890 C.ar    1  UNL1        0.1453
      2 C         139.3206  138.9083  165.0553 C.ar    1  UNL1        0.0372
      3 C         139.8179  139.6046  166.2873 C.ar    1  UNL1        0.0002
      4 C         141.2710  139.5354  166.6530 C.ar    1  UNL1       -0.0078
      5 C         142.2267  138.7699  165.7868 C.ar    1  UNL1        0.0002
      6 C         141.7294  138.0735  164.5547 C.ar    1  UNL1        0.0372
      7 C         141.7683  140.2316  167.8850 C.3     1  UNL1        0.0772
      8 C         142.5800  139.6096  168.9824 C.3     1  UNL1        0.0221
      9 C         142.8546  140.6657  170.0116 C.3     1  UNL1        0.0268
     10 C         142.2126  141.9405  169.5502 C.3     1  UNL1        0.1315
     11 N         141.5412  141.6722  168.2360 N.3     1  UNL1       -0.2890
     12 H         141.9414  142.2715  167.5141 H       1  UNL1        0.1239
     13 C         142.2375  143.2531  170.2758 C.2     1  UNL1        0.2336
     14 N         143.4677  143.6730  171.0244 N.am    1  UNL1       -0.3277
     15 O         141.0324  144.1459  170.2528 O.2     1  UNL1       -0.2739
     16 H         144.2587  143.0870  171.0395 H       1  UNL1        0.1450
     17 H         143.4841  144.5345  171.5006 H       1  UNL1        0.1450
     18 O         139.7790  137.4465  162.9570 O.3     1  UNL1       -0.4528
     19 C         140.2689  138.5666  160.6645 C.ar    1  UNL1        0.1029
     20 C         139.8048  139.3690  159.4852 C.ar    1  UNL1        0.0134
     21 C         138.3868  139.8538  159.4191 C.ar    1  UNL1        0.0009
     22 C         137.4329  139.5361  160.5322 C.ar    1  UNL1        0.0032
     23 C         137.8970  138.7337  161.7115 C.ar    1  UNL1        0.0382
     24 C         139.3150  138.2490  161.7776 C.ar    1  UNL1        0.1548
     25 N         143.1048  137.5972  160.7968 N.1     1  UNL1       -0.1907
     26 C         141.6869  138.0819  160.7306 C.1     1  UNL1        0.1035
@<TRIPOS>BOND
     1    25    26    3
     2    26    19    1
     3    19    20   ar
     4    20    21   ar
     5    21    22   ar
     6    22    23   ar
     7    23    24   ar
     8    24    18    1
     9    18     1    1
    10     1     2   ar
    11     2     3   ar
    12     3     4   ar
    13     7     4    1
    14     7     8    1
    15     8     9    1
    16     9    10    1
    17    10    13    1
    18    13    14   am
    19    13    15    2
    20    10    11    1
    21     4     5   ar
    22     5     6   ar
    23    24    19   ar
    24     6     1   ar
    25    11     7    1
    26    14    16    1
    27    14    17    1
    28    11    12    1
@<TRIPOS>MOLECULE
*****
 26 28 0 0 0
SMALL
GASTEIGER

@<TRIPOS>ATOM
      1 C         143.1662  138.8712  164.2026 C.ar    1  UNL1        0.1453
      2 C         143.7123  138.6902  165.5880 C.ar    1  UNL1        0.0372
      3 C         142.9397  139.1947  166.7705 C.ar    1  UNL1        0.0002
      4 C         141.6211  139.8804  166.5678 C.ar    1  UNL1       -0.0078
      5 C         141.0750  140.0615  165.1826 C.ar    1  UNL1        0.0002
      6 C         141.8476  139.5569  163.9999 C.ar    1  UNL1        0.0372
      7 C         140.8485  140.3849  167.7504 C.3     1  UNL1        0.0772
      8 C         139.5639  139.8135  168.2733 C.3     1  UNL1        0.0221
      9 C         139.1463  140.6249  169.4638 C.3     1  UNL1        0.0268
     10 C         140.1729  141.6978  169.6766 C.3     1  UNL1        0.1315
     11 N         141.2248  141.5494  168.6177 N.3     1  UNL1       -0.2890
     12 H         142.1317  141.3786  169.0522 H       1  UNL1        0.1239
     13 C         140.1512  142.7366  170.7585 C.2     1  UNL1        0.2336
     14 N         139.9860  144.1848  170.4045 N.am    1  UNL1       -0.3277
     15 O         140.2948  142.3273  172.1944 O.2     1  UNL1       -0.2739
     16 H         139.8917  144.4536  169.4620 H       1  UNL1        0.1450
     17 H         139.9717  144.8667  171.1145 H       1  UNL1        0.1450
     18 O         143.9388  138.3667  163.0200 O.3     1  UNL1       -0.4528
     19 C         144.0732  140.2393  161.2241 C.ar    1  UNL1        0.1029
     20 C         143.7542  140.7452  159.8485 C.ar    1  UNL1        0.0134
     21 C         142.9818  139.8845  158.8933 C.ar    1  UNL1        0.0009
     22 C         142.5283  138.5179  159.3136 C.ar    1  UNL1        0.0032
     23 C         142.8473  138.0120  160.6892 C.ar    1  UNL1        0.0382
     24 C         143.6198  138.8727  161.6444 C.ar    1  UNL1        0.1548
     25 N         145.6182  141.9606  163.1346 N.1     1  UNL1       -0.1907
     26 C         144.8457  141.1000  162.1793 C.1     1  UNL1        0.1035
@<TRIPOS>BOND
     1    25    26    3
     2    26    19    1
     3    19    20   ar
     4    20    21   ar
     5    21    22   ar
     6    22    23   ar
     7    23    24   ar
     8    24    18    1
     9    18     1    1
    10     1     2   ar
    11     2     3   ar
    12     3     4   ar
    13     7     4    1
    14     7     8    1
    15     8     9    1
    16     9    10    1
    17    10    13    1
    18    13    14   am
    19    13    15    2
    20    10    11    1
    21     4     5   ar
    22     5     6   ar
    23    24    19   ar
    24     6     1   ar
    25    11     7    1
    26    14    16    1
    27    14    17    1
    28    11    12    1
@<TRIPOS>MOLECULE
*****
 26 28 0 0 0
SMALL
GASTEIGER

@<TRIPOS>ATOM
      1 C         140.1194  144.4956  163.5589 C.ar    1  UNL1        0.1453
      2 C         139.1495  144.4532  164.7025 C.ar    1  UNL1        0.0372
      3 C         139.5059  143.7196  165.9614 C.ar    1  UNL1        0.0002
      4 C         140.8321  143.0283  166.0767 C.ar    1  UNL1       -0.0078
      5 C         141.8019  143.0706  164.9332 C.ar    1  UNL1        0.0002
      6 C         141.4456  143.8043  163.6743 C.ar    1  UNL1        0.0372
      7 C         141.1885  142.2947  167.3355 C.3     1  UNL1        0.0772
      8 C         142.4577  141.5348  167.5840 C.3     1  UNL1        0.0221
      9 C         142.3919  140.9626  168.9690 C.3     1  UNL1        0.0268
     10 C         141.0819  141.3688  169.5765 C.3     1  UNL1        0.1315
     11 N         140.3382  142.1921  168.5670 N.3     1  UNL1       -0.2890
     12 H         140.1602  143.1233  168.9433 H       1  UNL1        0.1239
     13 C         140.6003  141.0141  170.9521 C.2     1  UNL1        0.2336
     14 N         140.0881  139.6328  171.2344 N.am    1  UNL1       -0.3277
     15 O         140.6308  142.0406  172.0454 O.2     1  UNL1       -0.2739
     16 H         140.0681  138.9590  170.5169 H       1  UNL1        0.1450
     17 H         139.7720  139.4000  172.1373 H       1  UNL1        0.1450
     18 O         139.7630  145.2292  162.3001 O.3     1  UNL1       -0.4528
     19 C         139.3917  143.3675  160.5263 C.ar    1  UNL1        0.1029
     20 C         139.7101  142.7637  159.1906 C.ar    1  UNL1        0.0134
     21 C         140.7182  143.4179  158.2930 C.ar    1  UNL1        0.0009
     22 C         141.4080  144.6758  158.7311 C.ar    1  UNL1        0.0032
     23 C         141.0895  145.2795  160.0667 C.ar    1  UNL1        0.0382
     24 C         140.0814  144.6254  160.9643 C.ar    1  UNL1        0.1548
     25 N         137.3754  142.0592  162.3215 N.1     1  UNL1       -0.1907
     26 C         138.3835  142.7133  161.4239 C.1     1  UNL1        0.1035
@<TRIPOS>BOND
     1    25    26    3
     2    26    19    1
     3    19    20   ar
     4    20    21   ar
     5    21    22   ar
     6    22    23   ar
     7    23    24   ar
     8    24    18    1
     9    18     1    1
    10     1     2   ar
    11     2     3   ar
    12     3     4   ar
    13     7     4    1
    14     7     8    1
    15     8     9    1
    16     9    10    1
    17    10    13    1
    18    13    14   am
    19    13    15    2
    20    10    11    1
    21     4     5   ar
    22     5     6   ar
    23    24    19   ar
    24     6     1   ar
    25    11     7    1
    26    14    16    1
    27    14    17    1
    28    11    12    1
@<TRIPOS>MOLECULE
*****
 26 28 0 0 0
SMALL
GASTEIGER

@<TRIPOS>ATOM
      1 C         140.5016  138.0292  164.2455 C.ar    1  UNL1        0.1453
      2 C         141.8250  138.4105  164.8402 C.ar    1  UNL1        0.0372
      3 C         141.8760  139.1529  166.1426 C.ar    1  UNL1        0.0002
      4 C         140.6037  139.5141  166.8503 C.ar    1  UNL1       -0.0078
      5 C         139.2805  139.1329  166.2557 C.ar    1  UNL1        0.0002
      6 C         139.2294  138.3904  164.9532 C.ar    1  UNL1        0.0372
      7 C         140.6547  140.2565  168.1527 C.3     1  UNL1        0.0772
      8 C         141.2385  139.7456  169.4365 C.3     1  UNL1        0.0221
      9 C         141.0755  140.8134  170.4772 C.3     1  UNL1        0.0268
     10 C         140.3909  141.9844  169.8365 C.3     1  UNL1        0.1315
     11 N         140.1309  141.6401  168.3999 N.3     1  UNL1       -0.2890
     12 H         140.6097  142.3051  167.7925 H       1  UNL1        0.1239
     13 C         140.0299  143.2733  170.5136 C.2     1  UNL1        0.2336
     14 N         138.8721  143.3214  171.4661 N.am    1  UNL1       -0.3277
     15 O         140.8265  144.5140  170.2381 O.2     1  UNL1       -0.2739
     16 H         138.3493  142.5070  171.6469 H       1  UNL1        0.1450
     17 H         138.6352  144.1673  171.9105 H       1  UNL1        0.1450
     18 O         140.4506  137.2868  162.9431 O.3     1  UNL1       -0.4528
     19 C         141.2702  138.3929  160.7397 C.ar    1  UNL1        0.1029
     20 C         140.9732  139.1298  159.4675 C.ar    1  UNL1        0.0134
     21 C         139.5596  139.4978  159.1263 C.ar    1  UNL1        0.0009
     22 C         138.4431  139.1287  160.0575 C.ar    1  UNL1        0.0032
     23 C         138.7401  138.3918  161.3297 C.ar    1  UNL1        0.0382
     24 C         140.1537  138.0238  161.6708 C.ar    1  UNL1        0.1548
     25 N         144.0974  137.6570  161.4220 N.1     1  UNL1       -0.1907
     26 C         142.6838  138.0249  161.0808 C.1     1  UNL1        0.1035
@<TRIPOS>BOND
     1    25    26    3
     2    26    19    1
     3    19    20   ar
     4    20    21   ar
     5    21    22   ar
     6    22    23   ar
     7    23    24   ar
     8    24    18    1
     9    18     1    1
    10     1     2   ar
    11     2     3   ar
    12     3     4   ar
    13     7     4    1
    14     7     8    1
    15     8     9    1
    16     9    10    1
    17    10    13    1
    18    13    14   am
    19    13    15    2
    20    10    11    1
    21     4     5   ar
    22     5     6   ar
    23    24    19   ar
    24     6     1   ar
    25    11     7    1
    26    14    16    1
    27    14    17    1
    28    11    12    1
@<TRIPOS>MOLECULE
*****
 26 28 0 0 0
SMALL
GASTEIGER

@<TRIPOS>ATOM
      1 C         139.5669  139.7981  167.5792 C.ar    1  UNL1        0.1453
      2 C         140.5695  140.3264  166.5963 C.ar    1  UNL1        0.0372
      3 C         140.3572  140.1226  165.1255 C.ar    1  UNL1        0.0002
      4 C         139.1424  139.3905  164.6374 C.ar    1  UNL1       -0.0078
      5 C         138.1399  138.8622  165.6202 C.ar    1  UNL1        0.0002
      6 C         138.3521  139.0660  167.0911 C.ar    1  UNL1        0.0372
      7 C         138.9301  139.1866  163.1666 C.3     1  UNL1        0.0772
      8 C         138.7434  137.8676  162.4772 C.3     1  UNL1        0.0221
      9 C         138.5652  138.1318  161.0114 C.3     1  UNL1        0.0268
     10 C         138.6417  139.6142  160.7950 C.3     1  UNL1        0.1315
     11 N         138.8672  140.2661  162.1270 N.3     1  UNL1       -0.2890
     12 H         138.0982  140.9029  162.3353 H       1  UNL1        0.1239
     13 C         138.5149  140.3206  159.4778 C.2     1  UNL1        0.2336
     14 N         138.3916  141.8149  159.4370 N.am    1  UNL1       -0.3277
     15 O         138.5115  139.5327  158.2015 O.2     1  UNL1       -0.2739
     16 H         138.3938  142.3321  160.2748 H       1  UNL1        0.1450
     17 H         138.3084  142.2786  158.5725 H       1  UNL1        0.1450
     18 O         139.7792  140.0019  169.0500 O.3     1  UNL1       -0.4528
     19 C         142.0314  140.8401  170.0375 C.ar    1  UNL1        0.1029
     20 C         142.8998  141.9634  170.5213 C.ar    1  UNL1        0.0134
     21 C         142.3843  143.3719  170.5016 C.ar    1  UNL1        0.0009
     22 C         141.0004  143.6571  169.9980 C.ar    1  UNL1        0.0032
     23 C         140.1321  142.5338  169.5141 C.ar    1  UNL1        0.0382
     24 C         140.6476  141.1253  169.5339 C.ar    1  UNL1        0.1548
     25 N         143.0624  138.0231  170.0769 N.1     1  UNL1       -0.1907
     26 C         142.5469  139.4316  170.0572 C.1     1  UNL1        0.1035
@<TRIPOS>BOND
     1    25    26    3
     2    26    19    1
     3    19    20   ar
     4    20    21   ar
     5    21    22   ar
     6    22    23   ar
     7    23    24   ar
     8    24    18    1
     9    18     1    1
    10     1     2   ar
    11     2     3   ar
    12     3     4   ar
    13     7     4    1
    14     7     8    1
    15     8     9    1
    16     9    10    1
    17    10    13    1
    18    13    14   am
    19    13    15    2
    20    10    11    1
    21     4     5   ar
    22     5     6   ar
    23    24    19   ar
    24     6     1   ar
    25    11     7    1
    26    14    16    1
    27    14    17    1
    28    11    12    1
@<TRIPOS>MOLECULE
*****
 26 28 0 0 0
SMALL
GASTEIGER

@<TRIPOS>ATOM
      1 C         144.5479  141.4397  163.6572 C.ar    1  UNL1        0.1453
      2 C         143.8997  140.2859  164.3633 C.ar    1  UNL1        0.0372
      3 C         143.2843  140.4848  165.7167 C.ar    1  UNL1        0.0002
      4 C         143.3171  141.8376  166.3640 C.ar    1  UNL1       -0.0078
      5 C         143.9652  142.9914  165.6579 C.ar    1  UNL1        0.0002
      6 C         144.5806  142.7925  164.3044 C.ar    1  UNL1        0.0372
      7 C         142.7017  142.0366  167.7173 C.3     1  UNL1        0.0772
      8 C         143.4365  142.3874  168.9771 C.3     1  UNL1        0.0221
      9 C         142.4324  142.4873  170.0869 C.3     1  UNL1        0.0268
     10 C         141.0769  142.1982  169.5130 C.3     1  UNL1        0.1315
     11 N         141.2434  141.9197  168.0486 N.3     1  UNL1       -0.2890
     12 H         140.7094  142.5973  167.5044 H       1  UNL1        0.1239
     13 C         139.7823  142.1893  170.2707 C.2     1  UNL1        0.2336
     14 N         139.3639  143.3976  171.0548 N.am    1  UNL1       -0.3277
     15 O         138.9062  140.9720  170.2442 O.2     1  UNL1       -0.2739
     16 H         139.9389  144.1965  171.0722 H       1  UNL1        0.1450
     17 H         138.5142  143.3917  171.5520 H       1  UNL1        0.1450
     18 O         145.1633  141.2407  162.3038 O.3     1  UNL1       -0.4528
     19 C         143.7338  140.3207  160.3391 C.ar    1  UNL1        0.1029
     20 C         142.9191  140.5591  159.1024 C.ar    1  UNL1        0.0134
     21 C         142.7194  141.9560  158.5936 C.ar    1  UNL1        0.0009
     22 C         143.3342  143.1144  159.3215 C.ar    1  UNL1        0.0032
     23 C         144.1488  142.8760  160.5582 C.ar    1  UNL1        0.0382
     24 C         144.3486  141.4791  161.0670 C.ar    1  UNL1        0.1548
     25 N         144.1333  137.5269  161.3567 N.1     1  UNL1       -0.1907
     26 C         143.9335  138.9238  160.8479 C.1     1  UNL1        0.1035
@<TRIPOS>BOND
     1    25    26    3
     2    26    19    1
     3    19    20   ar
     4    20    21   ar
     5    21    22   ar
     6    22    23   ar
     7    23    24   ar
     8    24    18    1
     9    18     1    1
    10     1     2   ar
    11     2     3   ar
    12     3     4   ar
    13     7     4    1
    14     7     8    1
    15     8     9    1
    16     9    10    1
    17    10    13    1
    18    13    14   am
    19    13    15    2
    20    10    11    1
    21     4     5   ar
    22     5     6   ar
    23    24    19   ar
    24     6     1   ar
    25    11     7    1
    26    14    16    1
    27    14    17    1
    28    11    12    1
@<TRIPOS>MOLECULE
*****
 26 28 0 0 0
SMALL
GASTEIGER

@<TRIPOS>ATOM
      1 C         139.4567  139.4415  162.9629 C.ar    1  UNL1        0.1453
      2 C         140.2238  140.7186  163.1381 C.ar    1  UNL1        0.0372
      3 C         140.4362  141.2836  164.5113 C.ar    1  UNL1        0.0002
      4 C         139.8815  140.5715  165.7093 C.ar    1  UNL1       -0.0078
      5 C         139.1144  139.2944  165.5342 C.ar    1  UNL1        0.0002
      6 C         138.9020  138.7294  164.1609 C.ar    1  UNL1        0.0372
      7 C         140.0938  141.1364  167.0825 C.3     1  UNL1        0.0772
      8 C         140.4292  142.5619  167.4073 C.3     1  UNL1        0.0221
      9 C         140.5508  142.6816  168.8976 C.3     1  UNL1        0.0268
     10 C         140.2905  141.3300  169.4938 C.3     1  UNL1        0.1315
     11 N         140.0081  140.3750  168.3721 N.3     1  UNL1       -0.2890
     12 H         139.0735  139.9810  168.4799 H       1  UNL1        0.1239
     13 C         140.3094  140.9926  170.9553 C.2     1  UNL1        0.2336
     14 N         140.0103  139.5935  171.4059 N.am    1  UNL1       -0.3277
     15 O         140.6273  142.0543  171.9661 O.2     1  UNL1       -0.2739
     16 H         139.8016  138.8967  170.7425 H       1  UNL1        0.1450
     17 H         140.0226  139.3721  172.3651 H       1  UNL1        0.1450
     18 O         139.2443  138.8766  161.5897 O.3     1  UNL1       -0.4528
     19 C         140.3691  138.8754  159.2477 C.ar    1  UNL1        0.1029
     20 C         141.5480  138.5672  158.3730 C.ar    1  UNL1        0.0134
     21 C         142.7810  137.9519  158.9655 C.ar    1  UNL1        0.0009
     22 C         142.8352  137.6449  160.4327 C.ar    1  UNL1        0.0032
     23 C         141.6563  137.9531  161.3074 C.ar    1  UNL1        0.0382
     24 C         140.4233  138.5683  160.7149 C.ar    1  UNL1        0.1548
     25 N         137.9030  140.1059  158.0628 N.1     1  UNL1       -0.1907
     26 C         139.1361  139.4907  158.6552 C.1     1  UNL1        0.1035
@<TRIPOS>BOND
     1    25    26    3
     2    26    19    1
     3    19    20   ar
     4    20    21   ar
     5    21    22   ar
     6    22    23   ar
     7    23    24   ar
     8    24    18    1
     9    18     1    1
    10     1     2   ar
    11     2     3   ar
    12     3     4   ar
    13     7     4    1
    14     7     8    1
    15     8     9    1
    16     9    10    1
    17    10    13    1
    18    13    14   am
    19    13    15    2
    20    10    11    1
    21     4     5   ar
    22     5     6   ar
    23    24    19   ar
    24     6     1   ar
    25    11     7    1
    26    14    16    1
    27    14    17    1
    28    11    12    1
