@<TRIPOS>MOLECULE
*****
 32 37 0 0 0
SMALL
GASTEIGER

@<TRIPOS>ATOM
      1 C         143.9956  130.5600  154.5540 C.2     1  UNL1       -0.0198
      2 C         144.8056  131.0654  155.7109 C.2     1  UNL1       -0.0042
      3 C         144.4998  132.4051  156.3122 C.2     1  UNL1        0.0006
      4 C         143.3841  133.2396  155.7565 C.2     1  UNL1        0.0111
      5 C         142.8539  134.5896  156.1390 C.2     1  UNL1       -0.0044
      6 C         141.7162  134.9186  155.2184 C.2     1  UNL1        0.0689
      7 N         141.5433  133.7720  154.2670 N.2     1  UNL1       -0.2526
      8 C         142.5742  132.7343  154.5995 C.2     1  UNL1        0.0627
      9 C         142.8799  131.3945  153.9983 C.3     1  UNL1        0.0717
     10 C         140.9846  136.2198  155.3655 C.3     1  UNL1        0.0947
     11 N         141.3908  137.1921  156.4332 N.3     1  UNL1       -0.2887
     12 C         142.5285  136.8631  157.3538 C.3     1  UNL1        0.1161
     13 C         143.2600  135.5617  157.2066 C.3     1  UNL1        0.0510
     14 H         140.5709  137.3436  157.0208 H       1  UNL1        0.1239
     15 C         139.8470  136.5488  154.4450 C.3     1  UNL1        0.0202
     16 C         138.6231  137.2317  154.9796 C.3     1  UNL1        0.0017
     17 C         137.4854  137.5607  154.0591 C.3     1  UNL1        0.0001
     18 C         137.5716  137.2069  152.6040 C.3     1  UNL1        0.0000
     19 C         138.7955  136.5241  152.0694 C.3     1  UNL1        0.0001
     20 C         139.9332  136.1951  152.9899 C.3     1  UNL1        0.0017
     21 C         142.9347  137.8352  158.4214 C.ar    1  UNL1        0.1318
     22 N         142.9131  137.5813  159.8996 N.ar    1  UNL1       -0.2282
     23 C         143.3988  138.8212  160.5900 C.ar    1  UNL1        0.1187
     24 C         143.7206  139.8415  159.5386 C.ar    1  UNL1        0.0943
     25 N         143.4337  139.2321  158.1983 N.ar    1  UNL1       -0.3385
     26 H         143.5522  139.6717  157.3255 H       1  UNL1        0.1672
     27 C         143.5383  139.0080  162.0718 C.ar    1  UNL1        0.1195
     28 C         142.6386  138.2596  163.0101 C.ar    1  UNL1        0.1195
     29 N         142.7780  138.4464  164.4918 N.ar    1  UNL1       -0.2391
     30 C         143.8172  139.3816  165.0354 C.ar    1  UNL1        0.1195
     31 C         144.7170  140.1301  164.0971 C.ar    1  UNL1        0.1195
     32 N         144.5775  139.9433  162.6153 N.ar    1  UNL1       -0.2391
@<TRIPOS>BOND
     1     1     2    2
     2     2     3    1
     3     3     4    2
     4     4     5    1
     5     5     6    2
     6     6     7    1
     7     7     8    2
     8     8     9    1
     9     6    10    1
    10    10    15    1
    11    15    16    1
    12    16    17    1
    13    17    18    1
    14    18    19    1
    15    19    20    1
    16    10    11    1
    17    11    12    1
    18    12    21    1
    19    21    22   ar
    20    22    23   ar
    21    23    27    1
    22    27    28   ar
    23    28    29   ar
    24    29    30   ar
    25    30    31   ar
    26    31    32   ar
    27    23    24   ar
    28    24    25   ar
    29    12    13    1
    30     9     1    1
    31    20    15    1
    32    25    21   ar
    33     8     4    1
    34    32    27   ar
    35    13     5    1
    36    11    14    1
    37    25    26    1
@<TRIPOS>MOLECULE
*****
 32 37 0 0 0
SMALL
GASTEIGER

@<TRIPOS>ATOM
      1 C         144.1520  144.5198  164.5389 C.2     1  UNL1       -0.0198
      2 C         144.0537  144.7874  163.0662 C.2     1  UNL1       -0.0042
      3 C         143.0907  144.0041  162.2242 C.2     1  UNL1        0.0006
      4 C         142.2259  142.9532  162.8548 C.2     1  UNL1        0.0111
      5 C         141.1920  142.0287  162.2836 C.2     1  UNL1       -0.0044
      6 C         140.6511  141.1897  163.4033 C.2     1  UNL1        0.0689
      7 N         141.3509  141.5956  164.6664 N.2     1  UNL1       -0.2526
      8 C         142.3242  142.6855  164.3274 C.2     1  UNL1        0.0627
      9 C         143.2872  143.4688  165.1694 C.3     1  UNL1        0.0717
     10 C         139.5914  140.1645  163.1279 C.3     1  UNL1        0.0947
     11 N         139.0724  139.9783  161.7329 N.3     1  UNL1       -0.2887
     12 C         139.6132  140.8173  160.6132 C.3     1  UNL1        0.1161
     13 C         140.6730  141.8425  160.8886 C.3     1  UNL1        0.0510
     14 H         138.0670  140.1465  161.7678 H       1  UNL1        0.1239
     15 C         139.0506  139.3255  164.2475 C.3     1  UNL1        0.0202
     16 C         139.1689  137.8313  164.1898 C.3     1  UNL1        0.0017
     17 C         138.6281  136.9923  165.3094 C.3     1  UNL1        0.0001
     18 C         137.9689  137.6475  166.4868 C.3     1  UNL1        0.0000
     19 C         137.8506  139.1417  166.5445 C.3     1  UNL1        0.0001
     20 C         138.3914  139.9807  165.4249 C.3     1  UNL1        0.0017
     21 C         139.0943  140.6311  159.2182 C.ar    1  UNL1        0.1318
     22 N         137.7354  141.0284  158.7226 N.ar    1  UNL1       -0.2282
     23 C         137.6444  140.6577  157.2720 C.ar    1  UNL1        0.1187
     24 C         138.9470  140.0313  156.8710 C.ar    1  UNL1        0.0943
     25 N         139.8431  140.0148  158.0739 N.ar    1  UNL1       -0.3385
     26 H         140.7614  139.6615  158.1066 H       1  UNL1        0.1672
     27 C         136.4590  140.8753  156.3791 C.ar    1  UNL1        0.1195
     28 C         136.5774  141.7678  155.1793 C.ar    1  UNL1        0.1195
     29 N         135.3920  141.9854  154.2865 N.ar    1  UNL1       -0.2391
     30 C         134.0880  141.3106  154.5932 C.ar    1  UNL1        0.1195
     31 C         133.9695  140.4180  155.7930 C.ar    1  UNL1        0.1195
     32 N         135.1550  140.2004  156.6859 N.ar    1  UNL1       -0.2391
@<TRIPOS>BOND
     1     1     2    2
     2     2     3    1
     3     3     4    2
     4     4     5    1
     5     5     6    2
     6     6     7    1
     7     7     8    2
     8     8     9    1
     9     6    10    1
    10    10    15    1
    11    15    16    1
    12    16    17    1
    13    17    18    1
    14    18    19    1
    15    19    20    1
    16    10    11    1
    17    11    12    1
    18    12    21    1
    19    21    22   ar
    20    22    23   ar
    21    23    27    1
    22    27    28   ar
    23    28    29   ar
    24    29    30   ar
    25    30    31   ar
    26    31    32   ar
    27    23    24   ar
    28    24    25   ar
    29    12    13    1
    30     9     1    1
    31    20    15    1
    32    25    21   ar
    33     8     4    1
    34    32    27   ar
    35    13     5    1
    36    11    14    1
    37    25    26    1
@<TRIPOS>MOLECULE
*****
 32 37 0 0 0
SMALL
GASTEIGER

@<TRIPOS>ATOM
      1 C         138.0733  138.2902  166.9637 C.2     1  UNL1       -0.0198
      2 C         138.0228  137.3436  165.8012 C.2     1  UNL1       -0.0042
      3 C         138.8499  137.6120  164.5789 C.2     1  UNL1        0.0006
      4 C         139.7274  138.8270  164.5191 C.2     1  UNL1        0.0111
      5 C         140.6478  139.3490  163.4560 C.2     1  UNL1       -0.0044
      6 C         141.2672  140.6183  163.9614 C.2     1  UNL1        0.0689
      7 N         140.7296  140.8807  165.3369 N.2     1  UNL1       -0.2526
      8 C         139.7780  139.7736  165.6816 C.2     1  UNL1        0.0627
      9 C         138.9509  139.5052  166.9039 C.3     1  UNL1        0.0717
     10 C         142.2407  141.3711  163.1038 C.3     1  UNL1        0.0947
     11 N         142.5949  140.8546  161.7406 N.3     1  UNL1       -0.2887
     12 C         141.9755  139.5854  161.2352 C.3     1  UNL1        0.1161
     13 C         141.0019  138.8326  162.0929 C.3     1  UNL1        0.0510
     14 H         143.6050  140.7129  161.7327 H       1  UNL1        0.1239
     15 C         142.8601  142.6402  163.6091 C.3     1  UNL1        0.0202
     16 C         143.8853  142.5908  164.7030 C.3     1  UNL1        0.0017
     17 C         144.5047  143.8600  165.2084 C.3     1  UNL1        0.0001
     18 C         144.0989  145.1787  164.6199 C.3     1  UNL1        0.0000
     19 C         143.0737  145.2282  163.5261 C.3     1  UNL1        0.0001
     20 C         142.4543  143.9589  163.0207 C.3     1  UNL1        0.0017
     21 C         142.3296  139.0690  159.8722 C.ar    1  UNL1        0.1318
     22 N         142.3936  137.6267  159.4650 N.ar    1  UNL1       -0.2282
     23 C         142.7854  137.5706  158.0181 C.ar    1  UNL1        0.1187
     24 C         142.9636  138.9781  157.5311 C.ar    1  UNL1        0.0943
     25 N         142.6819  139.9041  158.6770 N.ar    1  UNL1       -0.3385
     26 H         142.7213  140.8874  158.6495 H       1  UNL1        0.1672
     27 C         142.9671  136.3254  157.2016 C.ar    1  UNL1        0.1195
     28 C         142.7667  136.3671  155.7157 C.ar    1  UNL1        0.1195
     29 N         142.9484  135.1220  154.8992 N.ar    1  UNL1       -0.2391
     30 C         143.3306  133.8352  155.5686 C.ar    1  UNL1        0.1195
     31 C         143.5310  133.7935  157.0546 C.ar    1  UNL1        0.1195
     32 N         143.3493  135.0387  157.8711 N.ar    1  UNL1       -0.2391
@<TRIPOS>BOND
     1     1     2    2
     2     2     3    1
     3     3     4    2
     4     4     5    1
     5     5     6    2
     6     6     7    1
     7     7     8    2
     8     8     9    1
     9     6    10    1
    10    10    15    1
    11    15    16    1
    12    16    17    1
    13    17    18    1
    14    18    19    1
    15    19    20    1
    16    10    11    1
    17    11    12    1
    18    12    21    1
    19    21    22   ar
    20    22    23   ar
    21    23    27    1
    22    27    28   ar
    23    28    29   ar
    24    29    30   ar
    25    30    31   ar
    26    31    32   ar
    27    23    24   ar
    28    24    25   ar
    29    12    13    1
    30     9     1    1
    31    20    15    1
    32    25    21   ar
    33     8     4    1
    34    32    27   ar
    35    13     5    1
    36    11    14    1
    37    25    26    1
@<TRIPOS>MOLECULE
*****
 32 37 0 0 0
SMALL
GASTEIGER

@<TRIPOS>ATOM
      1 C         137.9119  138.6557  167.7234 C.2     1  UNL1       -0.0198
      2 C         137.7278  137.6413  166.6338 C.2     1  UNL1       -0.0042
      3 C         138.4648  137.7923  165.3361 C.2     1  UNL1        0.0006
      4 C         139.3860  138.9576  165.1280 C.2     1  UNL1        0.0111
      5 C         140.2396  139.3670  163.9645 C.2     1  UNL1       -0.0044
      6 C         140.9514  140.6344  164.3350 C.2     1  UNL1        0.0689
      7 N         140.5376  141.0083  165.7275 N.2     1  UNL1       -0.2526
      8 C         139.5702  139.9720  166.2176 C.2     1  UNL1        0.0627
      9 C         138.8331  139.8210  167.5152 C.3     1  UNL1        0.0717
     10 C         141.8843  141.2842  163.3565 C.3     1  UNL1        0.0947
     11 N         142.1055  140.6666  162.0075 N.3     1  UNL1       -0.2887
     12 C         141.3937  139.3992  161.6370 C.3     1  UNL1        0.1161
     13 C         140.4608  138.7494  162.6156 C.3     1  UNL1        0.0510
     14 H         143.1046  140.4764  161.9310 H       1  UNL1        0.1239
     15 C         142.5960  142.5515  163.7269 C.3     1  UNL1        0.0202
     16 C         143.7090  142.5203  164.7320 C.3     1  UNL1        0.0017
     17 C         144.4207  143.7877  165.1025 C.3     1  UNL1        0.0001
     18 C         144.0195  145.0862  164.4679 C.3     1  UNL1        0.0000
     19 C         142.9064  145.1174  163.4628 C.3     1  UNL1        0.0001
     20 C         142.1947  143.8500  163.0923 C.3     1  UNL1        0.0017
     21 C         141.6149  138.7817  160.2880 C.ar    1  UNL1        0.1318
     22 N         140.5783  138.6057  159.2183 N.ar    1  UNL1       -0.2282
     23 C         141.2342  137.9469  158.0411 C.ar    1  UNL1        0.1187
     24 C         142.6763  137.7157  158.3833 C.ar    1  UNL1        0.0943
     25 N         142.9115  138.2316  159.7720 N.ar    1  UNL1       -0.3385
     26 H         143.7667  138.2126  160.2593 H       1  UNL1        0.1672
     27 C         140.5656  137.5831  156.7486 C.ar    1  UNL1        0.1195
     28 C         141.1936  136.5696  155.8385 C.ar    1  UNL1        0.1195
     29 N         140.5250  136.2059  154.5461 N.ar    1  UNL1       -0.2391
     30 C         139.2282  136.8555  154.1636 C.ar    1  UNL1        0.1195
     31 C         138.6001  137.8691  155.0737 C.ar    1  UNL1        0.1195
     32 N         139.2688  138.2329  156.3662 N.ar    1  UNL1       -0.2391
@<TRIPOS>BOND
     1     1     2    2
     2     2     3    1
     3     3     4    2
     4     4     5    1
     5     5     6    2
     6     6     7    1
     7     7     8    2
     8     8     9    1
     9     6    10    1
    10    10    15    1
    11    15    16    1
    12    16    17    1
    13    17    18    1
    14    18    19    1
    15    19    20    1
    16    10    11    1
    17    11    12    1
    18    12    21    1
    19    21    22   ar
    20    22    23   ar
    21    23    27    1
    22    27    28   ar
    23    28    29   ar
    24    29    30   ar
    25    30    31   ar
    26    31    32   ar
    27    23    24   ar
    28    24    25   ar
    29    12    13    1
    30     9     1    1
    31    20    15    1
    32    25    21   ar
    33     8     4    1
    34    32    27   ar
    35    13     5    1
    36    11    14    1
    37    25    26    1
@<TRIPOS>MOLECULE
*****
 32 37 0 0 0
SMALL
GASTEIGER

@<TRIPOS>ATOM
      1 C         144.1583  144.4735  164.6888 C.2     1  UNL1       -0.0198
      2 C         143.9161  144.9029  163.2721 C.2     1  UNL1       -0.0042
      3 C         142.8480  144.2347  162.4581 C.2     1  UNL1        0.0006
      4 C         142.0221  143.1372  163.0606 C.2     1  UNL1        0.0111
      5 C         140.9073  142.3003  162.5068 C.2     1  UNL1       -0.0044
      6 C         140.4605  141.3536  163.5811 C.2     1  UNL1        0.0689
      7 N         141.2991  141.6054  164.7990 N.2     1  UNL1       -0.2526
      8 C         142.2643  142.7077  164.4773 C.2     1  UNL1        0.0627
      9 C         143.3324  143.3759  165.2913 C.3     1  UNL1        0.0717
     10 C         139.3476  140.3846  163.3116 C.3     1  UNL1        0.0947
     11 N         138.6816  140.3623  161.9677 N.3     1  UNL1       -0.2887
     12 C         139.1284  141.3090  160.8934 C.3     1  UNL1        0.1161
     13 C         140.2413  142.2780  161.1629 C.3     1  UNL1        0.0510
     14 H         137.6907  140.5443  162.1271 H       1  UNL1        0.1239
     15 C         138.9008  139.4380  164.3859 C.3     1  UNL1        0.0202
     16 C         139.0932  137.9607  164.2113 C.3     1  UNL1        0.0017
     17 C         138.6464  137.0140  165.2857 C.3     1  UNL1        0.0001
     18 C         138.0071  137.5447  166.5345 C.3     1  UNL1        0.0000
     19 C         137.8147  139.0220  166.7091 C.3     1  UNL1        0.0001
     20 C         138.2615  139.9687  165.6348 C.3     1  UNL1        0.0017
     21 C         138.4624  141.2866  159.5495 C.ar    1  UNL1        0.1318
     22 N         138.4344  142.4141  158.5605 N.ar    1  UNL1       -0.2282
     23 C         137.6622  141.9571  157.3585 C.ar    1  UNL1        0.1187
     24 C         137.2129  140.5473  157.6046 C.ar    1  UNL1        0.0943
     25 N         137.7074  140.1330  158.9587 N.ar    1  UNL1       -0.3385
     26 H         137.5621  139.2575  159.3849 H       1  UNL1        0.1672
     27 C         137.3874  142.7678  156.1267 C.ar    1  UNL1        0.1195
     28 C         136.4981  142.2190  155.0506 C.ar    1  UNL1        0.1195
     29 N         136.2234  143.0295  153.8188 N.ar    1  UNL1       -0.2391
     30 C         136.8379  144.3890  153.6629 C.ar    1  UNL1        0.1195
     31 C         137.7273  144.9378  154.7390 C.ar    1  UNL1        0.1195
     32 N         138.0020  144.1272  155.9709 N.ar    1  UNL1       -0.2391
@<TRIPOS>BOND
     1     1     2    2
     2     2     3    1
     3     3     4    2
     4     4     5    1
     5     5     6    2
     6     6     7    1
     7     7     8    2
     8     8     9    1
     9     6    10    1
    10    10    15    1
    11    15    16    1
    12    16    17    1
    13    17    18    1
    14    18    19    1
    15    19    20    1
    16    10    11    1
    17    11    12    1
    18    12    21    1
    19    21    22   ar
    20    22    23   ar
    21    23    27    1
    22    27    28   ar
    23    28    29   ar
    24    29    30   ar
    25    30    31   ar
    26    31    32   ar
    27    23    24   ar
    28    24    25   ar
    29    12    13    1
    30     9     1    1
    31    20    15    1
    32    25    21   ar
    33     8     4    1
    34    32    27   ar
    35    13     5    1
    36    11    14    1
    37    25    26    1
@<TRIPOS>MOLECULE
*****
 32 37 0 0 0
SMALL
GASTEIGER

@<TRIPOS>ATOM
      1 C         137.6390  142.1250  164.0370 C.2     1  UNL1       -0.0198
      2 C         137.8640  140.6560  163.8333 C.2     1  UNL1       -0.0042
      3 C         138.2303  140.1346  162.4754 C.2     1  UNL1        0.0006
      4 C         138.3715  141.0821  161.3212 C.2     1  UNL1        0.0111
      5 C         138.7197  140.8621  159.8789 C.2     1  UNL1       -0.0044
      6 C         138.7098  142.1951  159.1911 C.2     1  UNL1        0.0689
      7 N         138.3556  143.2390  160.2084 N.2     1  UNL1       -0.2526
      8 C         138.1465  142.5510  161.5249 C.2     1  UNL1        0.0627
      9 C         137.7802  143.0725  162.8828 C.3     1  UNL1        0.0717
     10 C         139.0247  142.2862  157.7274 C.3     1  UNL1        0.0947
     11 N         139.3495  141.0443  156.9513 N.3     1  UNL1       -0.2887
     12 C         139.3593  139.7112  157.6391 C.3     1  UNL1        0.1161
     13 C         139.0444  139.6202  159.1029 C.3     1  UNL1        0.0510
     14 H         140.2803  141.1788  156.5564 H       1  UNL1        0.1239
     15 C         139.0149  143.6192  157.0397 C.3     1  UNL1        0.0202
     16 C         138.0410  143.8833  155.9298 C.3     1  UNL1        0.0017
     17 C         138.0311  145.2163  155.2420 C.3     1  UNL1        0.0001
     18 C         138.9952  146.2852  155.6641 C.3     1  UNL1        0.0000
     19 C         139.9690  146.0210  156.7740 C.3     1  UNL1        0.0001
     20 C         139.9789  144.6880  157.4617 C.3     1  UNL1        0.0017
     21 C         139.6841  138.4693  156.8631 C.ar    1  UNL1        0.1318
     22 N         140.8632  137.5705  157.0907 N.ar    1  UNL1       -0.2282
     23 C         140.7945  136.4539  156.0915 C.ar    1  UNL1        0.1187
     24 C         139.5729  136.6625  155.2464 C.ar    1  UNL1        0.0943
     25 N         138.8867  137.9081  155.7233 N.ar    1  UNL1       -0.3385
     26 H         138.0583  138.2902  155.3532 H       1  UNL1        0.1672
     27 C         141.7753  135.3265  155.9605 C.ar    1  UNL1        0.1195
     28 C         141.5666  134.2682  154.9181 C.ar    1  UNL1        0.1195
     29 N         142.5473  133.1409  154.7871 N.ar    1  UNL1       -0.2391
     30 C         143.7368  133.0717  155.6983 C.ar    1  UNL1        0.1195
     31 C         143.9455  134.1300  156.7407 C.ar    1  UNL1        0.1195
     32 N         142.9647  135.2574  156.8718 N.ar    1  UNL1       -0.2391
@<TRIPOS>BOND
     1     1     2    2
     2     2     3    1
     3     3     4    2
     4     4     5    1
     5     5     6    2
     6     6     7    1
     7     7     8    2
     8     8     9    1
     9     6    10    1
    10    10    15    1
    11    15    16    1
    12    16    17    1
    13    17    18    1
    14    18    19    1
    15    19    20    1
    16    10    11    1
    17    11    12    1
    18    12    21    1
    19    21    22   ar
    20    22    23   ar
    21    23    27    1
    22    27    28   ar
    23    28    29   ar
    24    29    30   ar
    25    30    31   ar
    26    31    32   ar
    27    23    24   ar
    28    24    25   ar
    29    12    13    1
    30     9     1    1
    31    20    15    1
    32    25    21   ar
    33     8     4    1
    34    32    27   ar
    35    13     5    1
    36    11    14    1
    37    25    26    1
@<TRIPOS>MOLECULE
*****
 32 37 0 0 0
SMALL
GASTEIGER

@<TRIPOS>ATOM
      1 C         140.3952  145.2959  157.7136 C.2     1  UNL1       -0.0198
      2 C         140.0685  144.3140  156.6277 C.2     1  UNL1       -0.0042
      3 C         140.5507  142.8972  156.7277 C.2     1  UNL1        0.0006
      4 C         141.3596  142.4621  157.9136 C.2     1  UNL1        0.0111
      5 C         141.9676  141.1419  158.2841 C.2     1  UNL1       -0.0044
      6 C         142.6701  141.3078  159.5990 C.2     1  UNL1        0.0689
      7 N         142.4962  142.7305  160.0412 N.2     1  UNL1       -0.2526
      8 C         141.6863  143.4440  158.9995 C.2     1  UNL1        0.0627
      9 C         141.2041  144.8608  158.8995 C.3     1  UNL1        0.0717
     10 C         143.3773  140.1418  160.2238 C.3     1  UNL1        0.0947
     11 N         143.3820  138.8099  159.5337 N.3     1  UNL1       -0.2887
     12 C         142.6795  138.6441  158.2188 C.3     1  UNL1        0.1161
     13 C         141.9723  139.8101  157.5940 C.3     1  UNL1        0.0510
     14 H         142.9601  138.1423  160.1792 H       1  UNL1        0.1239
     15 C         144.0797  140.3077  161.5387 C.3     1  UNL1        0.0202
     16 C         144.8669  141.5539  161.8165 C.3     1  UNL1        0.0017
     17 C         145.5694  141.7197  163.1315 C.3     1  UNL1        0.0001
     18 C         145.4847  140.6394  164.1686 C.3     1  UNL1        0.0000
     19 C         144.6974  139.3931  163.8907 C.3     1  UNL1        0.0001
     20 C         143.9950  139.2273  162.5758 C.3     1  UNL1        0.0017
     21 C         142.6843  137.3123  157.5286 C.ar    1  UNL1        0.1318
     22 N         143.2330  136.0324  158.0860 N.ar    1  UNL1       -0.2282
     23 C         143.0289  134.9556  157.0618 C.ar    1  UNL1        0.1187
     24 C         142.3541  135.5701  155.8714 C.ar    1  UNL1        0.0943
     25 N         142.1410  137.0266  156.1600 N.ar    1  UNL1       -0.3385
     26 H         141.7188  137.6802  155.5569 H       1  UNL1        0.1672
     27 C         143.4295  133.5170  157.2031 C.ar    1  UNL1        0.1195
     28 C         144.7012  133.1589  157.9133 C.ar    1  UNL1        0.1195
     29 N         145.1017  131.7203  158.0547 N.ar    1  UNL1       -0.2391
     30 C         144.2306  130.6398  157.4859 C.ar    1  UNL1        0.1195
     31 C         142.9587  130.9980  156.7756 C.ar    1  UNL1        0.1195
     32 N         142.5582  132.4366  156.6343 N.ar    1  UNL1       -0.2391
@<TRIPOS>BOND
     1     1     2    2
     2     2     3    1
     3     3     4    2
     4     4     5    1
     5     5     6    2
     6     6     7    1
     7     7     8    2
     8     8     9    1
     9     6    10    1
    10    10    15    1
    11    15    16    1
    12    16    17    1
    13    17    18    1
    14    18    19    1
    15    19    20    1
    16    10    11    1
    17    11    12    1
    18    12    21    1
    19    21    22   ar
    20    22    23   ar
    21    23    27    1
    22    27    28   ar
    23    28    29   ar
    24    29    30   ar
    25    30    31   ar
    26    31    32   ar
    27    23    24   ar
    28    24    25   ar
    29    12    13    1
    30     9     1    1
    31    20    15    1
    32    25    21   ar
    33     8     4    1
    34    32    27   ar
    35    13     5    1
    36    11    14    1
    37    25    26    1
@<TRIPOS>MOLECULE
*****
 32 37 0 0 0
SMALL
GASTEIGER

@<TRIPOS>ATOM
      1 C         135.9831  141.0811  154.0832 C.2     1  UNL1       -0.0198
      2 C         136.5094  140.3774  155.2989 C.2     1  UNL1       -0.0042
      3 C         137.4134  141.1014  156.2521 C.2     1  UNL1        0.0006
      4 C         137.7912  142.5290  155.9896 C.2     1  UNL1        0.0111
      5 C         138.6577  143.4931  156.7444 C.2     1  UNL1       -0.0044
      6 C         138.6670  144.7926  155.9953 C.2     1  UNL1        0.0689
      7 N         137.8063  144.6317  154.7774 N.2     1  UNL1       -0.2526
      8 C         137.2650  143.2327  154.7739 C.2     1  UNL1        0.0627
      9 C         136.3610  142.5087  153.8207 C.3     1  UNL1        0.0717
     10 C         139.4580  145.9545  156.5189 C.3     1  UNL1        0.0947
     11 N         140.2398  145.8170  157.7918 N.3     1  UNL1       -0.2887
     12 C         140.2305  144.5174  158.5409 C.3     1  UNL1        0.1161
     13 C         139.4394  143.3555  158.0172 C.3     1  UNL1        0.0510
     14 H         139.8875  146.5285  158.4321 H       1  UNL1        0.1239
     15 C         139.4673  147.2540  155.7699 C.3     1  UNL1        0.0202
     16 C         138.7185  148.4363  156.3097 C.3     1  UNL1        0.0017
     17 C         138.7278  149.7358  155.5606 C.3     1  UNL1        0.0001
     18 C         139.4859  149.8530  154.2716 C.3     1  UNL1        0.0000
     19 C         140.2347  148.6708  153.7318 C.3     1  UNL1        0.0001
     20 C         140.2254  147.3712  154.4809 C.3     1  UNL1        0.0017
     21 C         141.0123  144.3798  159.8137 C.ar    1  UNL1        0.1318
     22 N         141.8760  143.2147  160.1963 N.ar    1  UNL1       -0.2282
     23 C         142.4651  143.4980  161.5464 C.ar    1  UNL1        0.1187
     24 C         141.9654  144.8382  161.9982 C.ar    1  UNL1        0.0943
     25 N         141.0675  145.3832  160.9273 N.ar    1  UNL1       -0.3385
     26 H         140.5970  146.2477  160.9512 H       1  UNL1        0.1672
     27 C         143.3912  142.5989  162.3105 C.ar    1  UNL1        0.1195
     28 C         144.8580  142.5920  161.9968 C.ar    1  UNL1        0.1195
     29 N         145.7842  141.6930  162.7608 N.ar    1  UNL1       -0.2391
     30 C         145.2437  140.8007  163.8387 C.ar    1  UNL1        0.1195
     31 C         143.7768  140.8077  164.1524 C.ar    1  UNL1        0.1195
     32 N         142.8506  141.7068  163.3883 N.ar    1  UNL1       -0.2391
@<TRIPOS>BOND
     1     1     2    2
     2     2     3    1
     3     3     4    2
     4     4     5    1
     5     5     6    2
     6     6     7    1
     7     7     8    2
     8     8     9    1
     9     6    10    1
    10    10    15    1
    11    15    16    1
    12    16    17    1
    13    17    18    1
    14    18    19    1
    15    19    20    1
    16    10    11    1
    17    11    12    1
    18    12    21    1
    19    21    22   ar
    20    22    23   ar
    21    23    27    1
    22    27    28   ar
    23    28    29   ar
    24    29    30   ar
    25    30    31   ar
    26    31    32   ar
    27    23    24   ar
    28    24    25   ar
    29    12    13    1
    30     9     1    1
    31    20    15    1
    32    25    21   ar
    33     8     4    1
    34    32    27   ar
    35    13     5    1
    36    11    14    1
    37    25    26    1
@<TRIPOS>MOLECULE
*****
 32 37 0 0 0
SMALL
GASTEIGER

@<TRIPOS>ATOM
      1 C         140.3573  145.4923  160.3142 C.2     1  UNL1       -0.0198
      2 C         140.4173  145.0120  158.8944 C.2     1  UNL1       -0.0042
      3 C         140.9177  143.6311  158.5903 C.2     1  UNL1        0.0006
      4 C         141.3582  142.7304  159.7060 C.2     1  UNL1        0.0111
      5 C         141.8933  141.3291  159.7129 C.2     1  UNL1       -0.0044
      6 C         142.1641  140.9433  161.1370 C.2     1  UNL1        0.0689
      7 N         141.7963  142.1062  162.0102 N.2     1  UNL1       -0.2526
      8 C         141.2982  143.2106  161.1257 C.2     1  UNL1        0.0627
      9 C         140.7977  144.5916  161.4298 C.3     1  UNL1        0.0717
     10 C         142.7106  139.5830  161.4546 C.3     1  UNL1        0.0947
     11 N         142.9863  138.6084  160.3481 N.3     1  UNL1       -0.2887
     12 C         142.7156  138.9942  158.9240 C.3     1  UNL1        0.1161
     13 C         142.1691  140.3546  158.6065 C.3     1  UNL1        0.0510
     14 H         142.4253  137.7785  160.5401 H       1  UNL1        0.1239
     15 C         142.9813  139.1973  162.8785 C.3     1  UNL1        0.0202
     16 C         144.2919  139.5528  163.5157 C.3     1  UNL1        0.0017
     17 C         144.5627  139.1670  164.9397 C.3     1  UNL1        0.0001
     18 C         143.5229  138.4257  165.7266 C.3     1  UNL1        0.0000
     19 C         142.2123  138.0702  165.0895 C.3     1  UNL1        0.0001
     20 C         141.9415  138.4559  163.6654 C.3     1  UNL1        0.0017
     21 C         142.9913  138.0197  157.8176 C.ar    1  UNL1        0.1318
     22 N         142.6100  136.5690  157.8049 N.ar    1  UNL1       -0.2282
     23 C         143.0798  135.9775  156.5090 C.ar    1  UNL1        0.1187
     24 C         143.7515  137.0626  155.7207 C.ar    1  UNL1        0.0943
     25 N         143.6968  138.3247  156.5295 N.ar    1  UNL1       -0.3385
     26 H         144.0601  139.1997  156.2618 H       1  UNL1        0.1672
     27 C         142.9081  134.5513  156.0772 C.ar    1  UNL1        0.1195
     28 C         142.7411  134.2228  154.6232 C.ar    1  UNL1        0.1195
     29 N         142.5694  132.7967  154.1914 N.ar    1  UNL1       -0.2391
     30 C         142.5647  131.6989  155.2135 C.ar    1  UNL1        0.1195
     31 C         142.7317  132.0274  156.6677 C.ar    1  UNL1        0.1195
     32 N         142.9034  133.4536  157.0994 N.ar    1  UNL1       -0.2391
@<TRIPOS>BOND
     1     1     2    2
     2     2     3    1
     3     3     4    2
     4     4     5    1
     5     5     6    2
     6     6     7    1
     7     7     8    2
     8     8     9    1
     9     6    10    1
    10    10    15    1
    11    15    16    1
    12    16    17    1
    13    17    18    1
    14    18    19    1
    15    19    20    1
    16    10    11    1
    17    11    12    1
    18    12    21    1
    19    21    22   ar
    20    22    23   ar
    21    23    27    1
    22    27    28   ar
    23    28    29   ar
    24    29    30   ar
    25    30    31   ar
    26    31    32   ar
    27    23    24   ar
    28    24    25   ar
    29    12    13    1
    30     9     1    1
    31    20    15    1
    32    25    21   ar
    33     8     4    1
    34    32    27   ar
    35    13     5    1
    36    11    14    1
    37    25    26    1
