@<TRIPOS>MOLECULE
*****
 35 39 0 0 0
SMALL
GASTEIGER

@<TRIPOS>ATOM
      1 O         139.0586  143.7218  159.8880 O.2     1  UNL1       -0.2489
      2 C         140.4582  144.2105  160.1169 C.2     1  UNL1        0.3237
      3 N         141.1819  144.9487  159.0301 N.am    1  UNL1       -0.2657
      4 N         141.1341  143.9610  161.4326 N.ar    1  UNL1       -0.2609
      5 C         142.5231  144.3874  161.8051 C.ar    1  UNL1        0.0842
      6 C         142.7870  143.9311  163.2095 C.ar    1  UNL1        0.0207
      7 C         141.5611  143.2228  163.7048 C.ar    1  UNL1        0.0208
      8 C         141.2430  142.5633  165.0140 C.ar    1  UNL1        0.0390
      9 C         139.9034  141.9223  165.2250 C.ar    1  UNL1        0.1473
     10 C         138.8818  141.9408  164.1268 C.ar    1  UNL1        0.0390
     11 C         139.1999  142.6002  162.8176 C.ar    1  UNL1        0.0208
     12 C         140.5395  143.2412  162.6066 C.ar    1  UNL1        0.0683
     13 H         142.1005  145.2695  159.1803 H       1  UNL1        0.1566
     14 C         140.5062  145.1983  157.7144 C.ar    1  UNL1        0.0517
     15 C         140.3409  144.0773  156.7316 C.ar    1  UNL1        0.0147
     16 C         139.6651  144.3267  155.4159 C.ar    1  UNL1        0.0012
     17 C         139.1546  145.6973  155.0830 C.ar    1  UNL1        0.0039
     18 C         139.3198  146.8184  156.0658 C.ar    1  UNL1        0.0727
     19 C         139.9956  146.5689  157.3815 C.ar    1  UNL1        0.0186
     20 C         138.8093  148.1890  155.7328 C.3     1  UNL1        0.4186
     21 F         138.2988  149.5597  155.3998 F       1  UNL1       -0.1659
     22 F         138.4311  148.3971  157.1694 F       1  UNL1       -0.1659
     23 F         139.1875  147.9809  154.2962 F       1  UNL1       -0.1659
     24 O         139.5854  141.2629  166.5342 O.3     1  UNL1       -0.4363
     25 C         140.6914  140.7136  167.3856 C.ar    1  UNL1        0.2282
     26 N         141.6334  139.6906  166.8232 N.ar    1  UNL1       -0.1893
     27 C         142.7395  139.1413  167.6746 C.ar    1  UNL1        0.2012
     28 N         142.9036  139.6150  169.0883 N.ar    1  UNL1       -0.2271
     29 C         141.9617  140.6380  169.6507 C.ar    1  UNL1        0.0772
     30 C         140.8556  141.1873  168.7994 C.ar    1  UNL1        0.0477
     31 C         139.9137  142.2103  169.3617 C.3     1  UNL1        0.0494
     32 C         140.0778  142.6840  170.7754 C.3     1  UNL1        0.0738
     33 N         141.1839  142.1347  171.6268 N.3     1  UNL1       -0.2922
     34 C         142.1258  141.1117  171.0644 C.3     1  UNL1        0.1150
     35 H         140.7441  141.7121  172.4443 H       1  UNL1        0.1236
@<TRIPOS>BOND
     1     1     2    2
     2     2     3   am
     3     3    14    1
     4    14    15   ar
     5    15    16   ar
     6    16    17   ar
     7    17    18   ar
     8    18    20    1
     9    20    21    1
    10    20    22    1
    11    20    23    1
    12    18    19   ar
    13     2     4   am
    14     4     5   ar
    15     5     6   ar
    16     6     7   ar
    17     7     8   ar
    18     8     9   ar
    19     9    24    1
    20    24    25    1
    21    25    26   ar
    22    26    27   ar
    23    27    28   ar
    24    28    29   ar
    25    29    30   ar
    26    30    31    1
    27    31    32    1
    28    32    33    1
    29    33    34    1
    30     9    10   ar
    31    10    11   ar
    32    11    12   ar
    33    19    14   ar
    34    12     4   ar
    35    12     7   ar
    36    30    25   ar
    37    34    29    1
    38     3    13    1
    39    33    35    1
@<TRIPOS>MOLECULE
*****
 35 39 0 0 0
SMALL
GASTEIGER

@<TRIPOS>ATOM
      1 O         138.9829  143.6412  160.3214 O.2     1  UNL1       -0.2489
      2 C         140.3920  144.1327  160.4729 C.2     1  UNL1        0.3237
      3 N         141.0665  144.8387  159.3343 N.am    1  UNL1       -0.2657
      4 N         141.1265  143.9183  161.7631 N.ar    1  UNL1       -0.2609
      5 C         142.5314  144.3516  162.0603 C.ar    1  UNL1        0.0842
      6 C         142.8582  143.9341  163.4635 C.ar    1  UNL1        0.0207
      7 C         141.6553  143.2427  164.0334 C.ar    1  UNL1        0.0208
      8 C         141.3962  142.6207  165.3736 C.ar    1  UNL1        0.0390
      9 C         140.0668  141.9890  165.6628 C.ar    1  UNL1        0.1473
     10 C         138.9965  141.9792  164.6119 C.ar    1  UNL1        0.0390
     11 C         139.2556  142.6012  163.2718 C.ar    1  UNL1        0.0208
     12 C         140.5850  143.2329  162.9825 C.ar    1  UNL1        0.0683
     13 H         141.9913  145.1613  159.4337 H       1  UNL1        0.1566
     14 C         140.3321  145.0532  158.0441 C.ar    1  UNL1        0.0517
     15 C         139.9543  143.8780  157.1918 C.ar    1  UNL1        0.0147
     16 C         139.2198  144.0924  155.9016 C.ar    1  UNL1        0.0012
     17 C         138.8631  145.4819  155.4637 C.ar    1  UNL1        0.0039
     18 C         139.2408  146.6571  156.3158 C.ar    1  UNL1        0.0727
     19 C         139.9753  146.4427  157.6061 C.ar    1  UNL1        0.0186
     20 C         138.8841  148.0467  155.8778 C.3     1  UNL1        0.4186
     21 F         138.5274  149.4363  155.4398 F       1  UNL1       -0.1659
     22 F         138.5426  148.4053  157.2937 F       1  UNL1       -0.1659
     23 F         139.2257  147.6880  154.4619 F       1  UNL1       -0.1659
     24 O         139.8077  141.3670  167.0029 O.3     1  UNL1       -0.4363
     25 C         140.3749  141.9928  168.2425 C.ar    1  UNL1        0.2282
     26 N         140.0210  143.4063  168.5984 N.ar    1  UNL1       -0.1893
     27 C         140.5882  144.0321  169.8380 C.ar    1  UNL1        0.2012
     28 N         141.5093  143.2444  170.7218 N.ar    1  UNL1       -0.2271
     29 C         141.8632  141.8308  170.3659 C.ar    1  UNL1        0.0772
     30 C         141.2960  141.2050  169.1263 C.ar    1  UNL1        0.0477
     31 C         141.6499  139.7915  168.7705 C.3     1  UNL1        0.0494
     32 C         142.5710  139.0038  169.6542 C.3     1  UNL1        0.0738
     33 N         143.1382  139.6296  170.8938 N.3     1  UNL1       -0.2922
     34 C         142.7843  141.0431  171.2497 C.3     1  UNL1        0.1150
     35 H         144.1536  139.5941  170.8034 H       1  UNL1        0.1236
@<TRIPOS>BOND
     1     1     2    2
     2     2     3   am
     3     3    14    1
     4    14    15   ar
     5    15    16   ar
     6    16    17   ar
     7    17    18   ar
     8    18    20    1
     9    20    21    1
    10    20    22    1
    11    20    23    1
    12    18    19   ar
    13     2     4   am
    14     4     5   ar
    15     5     6   ar
    16     6     7   ar
    17     7     8   ar
    18     8     9   ar
    19     9    24    1
    20    24    25    1
    21    25    26   ar
    22    26    27   ar
    23    27    28   ar
    24    28    29   ar
    25    29    30   ar
    26    30    31    1
    27    31    32    1
    28    32    33    1
    29    33    34    1
    30     9    10   ar
    31    10    11   ar
    32    11    12   ar
    33    19    14   ar
    34    12     4   ar
    35    12     7   ar
    36    30    25   ar
    37    34    29    1
    38     3    13    1
    39    33    35    1
@<TRIPOS>MOLECULE
*****
 35 39 0 0 0
SMALL
GASTEIGER

@<TRIPOS>ATOM
      1 O         141.3449  139.0404  164.1950 O.2     1  UNL1       -0.2489
      2 C         140.5836  140.1576  163.5450 C.2     1  UNL1        0.3237
      3 N         139.7749  141.1018  164.3844 N.am    1  UNL1       -0.2657
      4 N         140.6309  140.3305  162.0558 N.ar    1  UNL1       -0.2609
      5 C         139.9254  141.3949  161.2689 C.ar    1  UNL1        0.0842
      6 C         140.2505  141.1916  159.8187 C.ar    1  UNL1        0.0207
      7 C         141.1569  140.0014  159.7095 C.ar    1  UNL1        0.0208
      8 C         141.7986  139.3336  158.5295 C.ar    1  UNL1        0.0390
      9 C         142.6754  138.1335  158.7322 C.ar    1  UNL1        0.1473
     10 C         142.9105  137.6013  160.1148 C.ar    1  UNL1        0.0390
     11 C         142.2688  138.2692  161.2947 C.ar    1  UNL1        0.0208
     12 C         141.3920  139.4693  161.0920 C.ar    1  UNL1        0.0683
     13 H         139.2752  141.8350  163.9578 H       1  UNL1        0.1566
     14 C         139.7275  140.9290  165.8736 C.ar    1  UNL1        0.0517
     15 C         138.9664  139.7832  166.4718 C.ar    1  UNL1        0.0147
     16 C         138.9190  139.6102  167.9611 C.ar    1  UNL1        0.0012
     17 C         139.6327  140.5832  168.8521 C.ar    1  UNL1        0.0039
     18 C         140.3938  141.7290  168.2540 C.ar    1  UNL1        0.0727
     19 C         140.4412  141.9019  166.7647 C.ar    1  UNL1        0.0186
     20 C         141.1075  142.7019  169.1451 C.3     1  UNL1        0.4186
     21 F         141.8211  143.6750  170.0362 F       1  UNL1       -0.1659
     22 F         142.1023  141.6397  169.5082 F       1  UNL1       -0.1659
     23 F         140.1126  143.7642  168.7820 F       1  UNL1       -0.1659
     24 O         143.3171  137.4656  157.5523 O.3     1  UNL1       -0.4363
     25 C         142.4676  136.7680  156.5317 C.ar    1  UNL1        0.2282
     26 N         141.6373  137.5690  155.5731 N.ar    1  UNL1       -0.1893
     27 C         140.7877  136.8714  154.5524 C.ar    1  UNL1        0.2012
     28 N         140.7686  135.3728  154.4904 N.ar    1  UNL1       -0.2271
     29 C         141.5989  134.5718  155.4490 C.ar    1  UNL1        0.0772
     30 C         142.4485  135.2694  156.4697 C.ar    1  UNL1        0.0477
     31 C         143.2788  134.4684  157.4282 C.3     1  UNL1        0.0494
     32 C         143.2596  132.9698  157.3662 C.3     1  UNL1        0.0738
     33 N         142.4101  132.2722  156.3455 N.3     1  UNL1       -0.2922
     34 C         141.5798  133.0732  155.3870 C.3     1  UNL1        0.1150
     35 H         141.7674  131.6697  156.8596 H       1  UNL1        0.1236
@<TRIPOS>BOND
     1     1     2    2
     2     2     3   am
     3     3    14    1
     4    14    15   ar
     5    15    16   ar
     6    16    17   ar
     7    17    18   ar
     8    18    20    1
     9    20    21    1
    10    20    22    1
    11    20    23    1
    12    18    19   ar
    13     2     4   am
    14     4     5   ar
    15     5     6   ar
    16     6     7   ar
    17     7     8   ar
    18     8     9   ar
    19     9    24    1
    20    24    25    1
    21    25    26   ar
    22    26    27   ar
    23    27    28   ar
    24    28    29   ar
    25    29    30   ar
    26    30    31    1
    27    31    32    1
    28    32    33    1
    29    33    34    1
    30     9    10   ar
    31    10    11   ar
    32    11    12   ar
    33    19    14   ar
    34    12     4   ar
    35    12     7   ar
    36    30    25   ar
    37    34    29    1
    38     3    13    1
    39    33    35    1
@<TRIPOS>MOLECULE
*****
 35 39 0 0 0
SMALL
GASTEIGER

@<TRIPOS>ATOM
      1 O         143.0478  140.3501  165.4359 O.2     1  UNL1       -0.2489
      2 C         141.7672  139.5690  165.4363 C.2     1  UNL1        0.3237
      3 N         140.9732  139.4312  166.7015 N.am    1  UNL1       -0.2657
      4 N         141.2804  138.9258  164.1716 N.ar    1  UNL1       -0.2609
      5 C         140.0254  138.1186  164.0194 C.ar    1  UNL1        0.0842
      6 C         139.9327  137.6708  162.5908 C.ar    1  UNL1        0.0207
      7 C         141.1304  138.2014  161.8602 C.ar    1  UNL1        0.0208
      8 C         141.5702  138.0784  160.4313 C.ar    1  UNL1        0.0390
      9 C         142.8429  138.7311  159.9795 C.ar    1  UNL1        0.1473
     10 C         143.6759  139.5068  160.9565 C.ar    1  UNL1        0.0390
     11 C         143.2361  139.6297  162.3853 C.ar    1  UNL1        0.0208
     12 C         141.9634  138.9770  162.8371 C.ar    1  UNL1        0.0683
     13 H         140.1328  138.9185  166.7018 H       1  UNL1        0.1566
     14 C         141.4599  140.0743  167.9662 C.ar    1  UNL1        0.0517
     15 C         142.3671  139.3183  168.8911 C.ar    1  UNL1        0.0147
     16 C         142.8538  139.9614  170.1558 C.ar    1  UNL1        0.0012
     17 C         142.4332  141.3605  170.4957 C.ar    1  UNL1        0.0039
     18 C         141.5260  142.1166  169.5709 C.ar    1  UNL1        0.0727
     19 C         141.0393  141.4735  168.3060 C.ar    1  UNL1        0.0186
     20 C         141.1055  143.5157  169.9107 C.3     1  UNL1        0.4186
     21 F         140.6850  144.9150  170.2506 F       1  UNL1       -0.1659
     22 F         139.6920  143.1820  169.5357 F       1  UNL1       -0.1659
     23 F         142.5191  143.8494  170.2858 F       1  UNL1       -0.1659
     24 O         143.2827  138.6081  158.5507 O.3     1  UNL1       -0.4363
     25 C         142.6377  137.5950  157.6520 C.ar    1  UNL1        0.2282
     26 N         143.3070  136.2750  157.4080 N.ar    1  UNL1       -0.1893
     27 C         142.6621  135.2618  156.5093 C.ar    1  UNL1        0.2012
     28 N         141.3479  135.5687  155.8546 N.ar    1  UNL1       -0.2271
     29 C         140.6786  136.8888  156.0986 C.ar    1  UNL1        0.0772
     30 C         141.3235  137.9019  156.9973 C.ar    1  UNL1        0.0477
     31 C         140.6542  139.2219  157.2413 C.3     1  UNL1        0.0494
     32 C         139.3400  139.5288  156.5866 C.3     1  UNL1        0.0738
     33 N         138.6951  138.5157  155.6879 N.3     1  UNL1       -0.2922
     34 C         139.3644  137.1957  155.4439 C.3     1  UNL1        0.1150
     35 H         138.5805  138.9605  154.7772 H       1  UNL1        0.1236
@<TRIPOS>BOND
     1     1     2    2
     2     2     3   am
     3     3    14    1
     4    14    15   ar
     5    15    16   ar
     6    16    17   ar
     7    17    18   ar
     8    18    20    1
     9    20    21    1
    10    20    22    1
    11    20    23    1
    12    18    19   ar
    13     2     4   am
    14     4     5   ar
    15     5     6   ar
    16     6     7   ar
    17     7     8   ar
    18     8     9   ar
    19     9    24    1
    20    24    25    1
    21    25    26   ar
    22    26    27   ar
    23    27    28   ar
    24    28    29   ar
    25    29    30   ar
    26    30    31    1
    27    31    32    1
    28    32    33    1
    29    33    34    1
    30     9    10   ar
    31    10    11   ar
    32    11    12   ar
    33    19    14   ar
    34    12     4   ar
    35    12     7   ar
    36    30    25   ar
    37    34    29    1
    38     3    13    1
    39    33    35    1
@<TRIPOS>MOLECULE
*****
 35 39 0 0 0
SMALL
GASTEIGER

@<TRIPOS>ATOM
      1 O         142.5804  140.5784  164.4417 O.2     1  UNL1       -0.2489
      2 C         141.1895  140.0283  164.3289 C.2     1  UNL1        0.3237
      3 N         140.2351  140.1606  165.4785 N.am    1  UNL1       -0.2657
      4 N         140.7529  139.3459  163.0665 N.ar    1  UNL1       -0.2609
      5 C         139.4009  138.7496  162.8088 C.ar    1  UNL1        0.0842
      6 C         139.4041  138.1751  161.4231 C.ar    1  UNL1        0.0207
      7 C         140.7582  138.4163  160.8246 C.ar    1  UNL1        0.0208
      8 C         141.3398  138.0705  159.4858 C.ar    1  UNL1        0.0390
      9 C         142.7550  138.4483  159.1627 C.ar    1  UNL1        0.1473
     10 C         143.5886  139.1719  160.1784 C.ar    1  UNL1        0.0390
     11 C         143.0070  139.5176  161.5171 C.ar    1  UNL1        0.0208
     12 C         141.5918  139.1399  161.8402 C.ar    1  UNL1        0.0683
     13 H         139.3222  139.7996  165.4045 H       1  UNL1        0.1566
     14 C         140.6716  140.8431  166.7409 C.ar    1  UNL1        0.0517
     15 C         140.3096  142.2788  166.9812 C.ar    1  UNL1        0.0147
     16 C         140.7460  142.9613  168.2436 C.ar    1  UNL1        0.0012
     17 C         141.5446  142.2081  169.2658 C.ar    1  UNL1        0.0039
     18 C         141.9067  140.7724  169.0257 C.ar    1  UNL1        0.0727
     19 C         141.4702  140.0899  167.7632 C.ar    1  UNL1        0.0186
     20 C         142.7052  140.0192  170.0479 C.3     1  UNL1        0.4186
     21 F         143.5039  139.2660  171.0702 F       1  UNL1       -0.1659
     22 F         141.6872  138.9177  170.0315 F       1  UNL1       -0.1659
     23 F         143.7233  141.1208  170.0642 F       1  UNL1       -0.1659
     24 O         143.3366  138.1026  157.8240 O.3     1  UNL1       -0.4363
     25 C         142.4740  137.4706  156.7721 C.ar    1  UNL1        0.2282
     26 N         141.6463  138.3313  155.8644 N.ar    1  UNL1       -0.1893
     27 C         140.7837  137.6994  154.8124 C.ar    1  UNL1        0.2012
     28 N         140.7488  136.2068  154.6682 N.ar    1  UNL1       -0.2271
     29 C         141.5766  135.3460  155.5760 C.ar    1  UNL1        0.0772
     30 C         142.4392  135.9779  156.6279 C.ar    1  UNL1        0.0477
     31 C         143.2670  135.1172  157.5356 C.3     1  UNL1        0.0494
     32 C         143.2321  133.6246  157.3914 C.3     1  UNL1        0.0738
     33 N         142.3695  132.9927  156.3395 N.3     1  UNL1       -0.2922
     34 C         141.5418  133.8534  155.4318 C.3     1  UNL1        0.1150
     35 H         141.7237  132.3692  156.8238 H       1  UNL1        0.1236
@<TRIPOS>BOND
     1     1     2    2
     2     2     3   am
     3     3    14    1
     4    14    15   ar
     5    15    16   ar
     6    16    17   ar
     7    17    18   ar
     8    18    20    1
     9    20    21    1
    10    20    22    1
    11    20    23    1
    12    18    19   ar
    13     2     4   am
    14     4     5   ar
    15     5     6   ar
    16     6     7   ar
    17     7     8   ar
    18     8     9   ar
    19     9    24    1
    20    24    25    1
    21    25    26   ar
    22    26    27   ar
    23    27    28   ar
    24    28    29   ar
    25    29    30   ar
    26    30    31    1
    27    31    32    1
    28    32    33    1
    29    33    34    1
    30     9    10   ar
    31    10    11   ar
    32    11    12   ar
    33    19    14   ar
    34    12     4   ar
    35    12     7   ar
    36    30    25   ar
    37    34    29    1
    38     3    13    1
    39    33    35    1
@<TRIPOS>MOLECULE
*****
 35 39 0 0 0
SMALL
GASTEIGER

@<TRIPOS>ATOM
      1 O         141.1706  138.7249  163.7327 O.2     1  UNL1       -0.2489
      2 C         139.9848  139.3404  163.0506 C.2     1  UNL1        0.3237
      3 N         138.9011  139.9826  163.8650 N.am    1  UNL1       -0.2657
      4 N         139.8826  139.3136  161.5544 N.ar    1  UNL1       -0.2609
      5 C         138.7626  139.8853  160.7367 C.ar    1  UNL1        0.0842
      6 C         139.0704  139.6355  159.2900 C.ar    1  UNL1        0.0207
      7 C         140.3806  138.9093  159.2137 C.ar    1  UNL1        0.0208
      8 C         141.1815  138.4035  158.0505 C.ar    1  UNL1        0.0390
      9 C         142.4844  137.6988  158.2869 C.ar    1  UNL1        0.1473
     10 C         142.9864  137.4999  159.6864 C.ar    1  UNL1        0.0390
     11 C         142.1856  138.0057  160.8494 C.ar    1  UNL1        0.0208
     12 C         140.8827  138.7104  160.6131 C.ar    1  UNL1        0.0683
     13 H         138.1228  140.3866  163.4174 H       1  UNL1        0.1566
     14 C         139.0032  140.0094  165.3612 C.ar    1  UNL1        0.0517
     15 C         138.1730  139.0715  166.1865 C.ar    1  UNL1        0.0147
     16 C         138.2750  139.0982  167.6828 C.ar    1  UNL1        0.0012
     17 C         139.2072  140.0629  168.3539 C.ar    1  UNL1        0.0039
     18 C         140.0374  141.0009  167.5286 C.ar    1  UNL1        0.0727
     19 C         139.9354  140.9741  166.0323 C.ar    1  UNL1        0.0186
     20 C         140.9696  141.9656  168.1997 C.3     1  UNL1        0.4186
     21 F         141.9018  142.9304  168.8707 F       1  UNL1       -0.1659
     22 F         141.7178  140.8179  168.8103 F       1  UNL1       -0.1659
     23 F         140.2213  143.1134  167.5890 F       1  UNL1       -0.1659
     24 O         143.2853  137.1930  157.1238 O.3     1  UNL1       -0.4363
     25 C         143.0897  135.7894  156.6323 C.ar    1  UNL1        0.2282
     26 N         143.3412  134.6310  157.5514 N.ar    1  UNL1       -0.1893
     27 C         143.1456  133.2274  157.0598 C.ar    1  UNL1        0.2012
     28 N         142.6986  132.9822  155.6492 N.ar    1  UNL1       -0.2271
     29 C         142.4471  134.1406  154.7300 C.ar    1  UNL1        0.0772
     30 C         142.6427  135.5442  155.2215 C.ar    1  UNL1        0.0477
     31 C         142.3912  136.7026  154.3024 C.3     1  UNL1        0.0494
     32 C         141.9442  136.4574  152.8918 C.3     1  UNL1        0.0738
     33 N         141.7486  135.0538  152.4002 N.3     1  UNL1       -0.2922
     34 C         142.0001  133.8954  153.3193 C.3     1  UNL1        0.1150
     35 H         142.3679  134.9336  151.5987 H       1  UNL1        0.1236
@<TRIPOS>BOND
     1     1     2    2
     2     2     3   am
     3     3    14    1
     4    14    15   ar
     5    15    16   ar
     6    16    17   ar
     7    17    18   ar
     8    18    20    1
     9    20    21    1
    10    20    22    1
    11    20    23    1
    12    18    19   ar
    13     2     4   am
    14     4     5   ar
    15     5     6   ar
    16     6     7   ar
    17     7     8   ar
    18     8     9   ar
    19     9    24    1
    20    24    25    1
    21    25    26   ar
    22    26    27   ar
    23    27    28   ar
    24    28    29   ar
    25    29    30   ar
    26    30    31    1
    27    31    32    1
    28    32    33    1
    29    33    34    1
    30     9    10   ar
    31    10    11   ar
    32    11    12   ar
    33    19    14   ar
    34    12     4   ar
    35    12     7   ar
    36    30    25   ar
    37    34    29    1
    38     3    13    1
    39    33    35    1
@<TRIPOS>MOLECULE
*****
 35 39 0 0 0
SMALL
GASTEIGER

@<TRIPOS>ATOM
      1 O         143.2163  140.5197  165.6070 O.2     1  UNL1       -0.2489
      2 C         142.0156  139.6207  165.5984 C.2     1  UNL1        0.3237
      3 N         141.2216  139.4178  166.8548 N.am    1  UNL1       -0.2657
      4 N         141.6087  138.9247  164.3335 N.ar    1  UNL1       -0.2609
      5 C         140.4380  138.0009  164.1729 C.ar    1  UNL1        0.0842
      6 C         140.4069  137.5355  162.7472 C.ar    1  UNL1        0.0207
      7 C         141.5586  138.1717  162.0268 C.ar    1  UNL1        0.0208
      8 C         142.0268  138.0800  160.6047 C.ar    1  UNL1        0.0390
      9 C         143.2379  138.8470  160.1630 C.ar    1  UNL1        0.1473
     10 C         143.9807  139.7056  161.1434 C.ar    1  UNL1        0.0390
     11 C         143.5124  139.7972  162.5655 C.ar    1  UNL1        0.0208
     12 C         142.3013  139.0302  163.0072 C.ar    1  UNL1        0.0683
     13 H         140.4336  138.8278  166.8492 H       1  UNL1        0.1566
     14 C         141.6284  140.1139  168.1197 C.ar    1  UNL1        0.0517
     15 C         142.5218  139.4190  169.1041 C.ar    1  UNL1        0.0147
     16 C         142.9286  140.1150  170.3691 C.ar    1  UNL1        0.0012
     17 C         142.4420  141.5058  170.6497 C.ar    1  UNL1        0.0039
     18 C         141.5486  142.2007  169.6653 C.ar    1  UNL1        0.0727
     19 C         141.1418  141.5047  168.4003 C.ar    1  UNL1        0.0186
     20 C         141.0620  143.5915  169.9460 C.3     1  UNL1        0.4186
     21 F         140.5753  144.9824  170.2266 F       1  UNL1       -0.1659
     22 F         142.4360  143.9795  170.4057 F       1  UNL1       -0.1659
     23 F         139.6878  143.2035  169.4862 F       1  UNL1       -0.1659
     24 O         143.7062  138.7554  158.7409 O.3     1  UNL1       -0.4363
     25 C         142.7155  138.8420  157.6180 C.ar    1  UNL1        0.2282
     26 N         142.1159  140.1660  157.2472 N.ar    1  UNL1       -0.1893
     27 C         141.1252  140.2525  156.1243 C.ar    1  UNL1        0.2012
     28 N         140.7340  139.0151  155.3721 N.ar    1  UNL1       -0.2271
     29 C         141.3336  137.6910  155.7429 C.ar    1  UNL1        0.0772
     30 C         142.3243  137.6045  156.8659 C.ar    1  UNL1        0.0477
     31 C         142.9239  136.2805  157.2367 C.3     1  UNL1        0.0494
     32 C         142.5328  135.0431  156.4846 C.3     1  UNL1        0.0738
     33 N         141.5420  135.1296  155.3617 N.3     1  UNL1       -0.2922
     34 C         140.9425  136.4536  154.9908 C.3     1  UNL1        0.1150
     35 H         140.7667  134.5130  155.6048 H       1  UNL1        0.1236
@<TRIPOS>BOND
     1     1     2    2
     2     2     3   am
     3     3    14    1
     4    14    15   ar
     5    15    16   ar
     6    16    17   ar
     7    17    18   ar
     8    18    20    1
     9    20    21    1
    10    20    22    1
    11    20    23    1
    12    18    19   ar
    13     2     4   am
    14     4     5   ar
    15     5     6   ar
    16     6     7   ar
    17     7     8   ar
    18     8     9   ar
    19     9    24    1
    20    24    25    1
    21    25    26   ar
    22    26    27   ar
    23    27    28   ar
    24    28    29   ar
    25    29    30   ar
    26    30    31    1
    27    31    32    1
    28    32    33    1
    29    33    34    1
    30     9    10   ar
    31    10    11   ar
    32    11    12   ar
    33    19    14   ar
    34    12     4   ar
    35    12     7   ar
    36    30    25   ar
    37    34    29    1
    38     3    13    1
    39    33    35    1
@<TRIPOS>MOLECULE
*****
 35 39 0 0 0
SMALL
GASTEIGER

@<TRIPOS>ATOM
      1 O         144.1054  141.4485  160.2490 O.2     1  UNL1       -0.2489
      2 C         143.2891  142.6453  159.8601 C.2     1  UNL1        0.3237
      3 N         143.2644  143.1044  158.4322 N.am    1  UNL1       -0.2657
      4 N         142.4975  143.3831  160.8988 N.ar    1  UNL1       -0.2609
      5 C         141.6395  144.5902  160.6608 C.ar    1  UNL1        0.0842
      6 C         141.0367  144.9965  161.9729 C.ar    1  UNL1        0.0207
      7 C         141.5223  144.0405  163.0218 C.ar    1  UNL1        0.0208
      8 C         141.2589  143.9491  164.4958 C.ar    1  UNL1        0.0390
      9 C         141.8984  142.8606  165.3058 C.ar    1  UNL1        0.1473
     10 C         142.8012  141.8634  164.6419 C.ar    1  UNL1        0.0390
     11 C         143.0646  141.9548  163.1681 C.ar    1  UNL1        0.0208
     12 C         142.4251  143.0434  162.3580 C.ar    1  UNL1        0.0683
     13 H         142.7287  143.8899  158.1769 H       1  UNL1        0.1566
     14 C         144.0559  142.3666  157.3934 C.ar    1  UNL1        0.0517
     15 C         143.3640  141.4279  156.4500 C.ar    1  UNL1        0.0147
     16 C         144.1554  140.6901  155.4111 C.ar    1  UNL1        0.0012
     17 C         145.6388  140.8910  155.3156 C.ar    1  UNL1        0.0039
     18 C         146.3308  141.8297  156.2590 C.ar    1  UNL1        0.0727
     19 C         145.5393  142.5675  157.2979 C.ar    1  UNL1        0.0186
     20 C         147.8142  142.0306  156.1635 C.3     1  UNL1        0.4186
     21 F         149.2977  142.2316  156.0681 F       1  UNL1       -0.1659
     22 F         147.8305  141.2902  154.8591 F       1  UNL1       -0.1659
     23 F         147.7978  142.7711  157.4680 F       1  UNL1       -0.1659
     24 O         141.6351  142.7691  166.7796 O.3     1  UNL1       -0.4363
     25 C         140.7529  141.6819  167.3179 C.ar    1  UNL1        0.2282
     26 N         139.8704  140.9030  166.3882 N.ar    1  UNL1       -0.1893
     27 C         138.9882  139.8157  166.9265 C.ar    1  UNL1        0.2012
     28 N         138.9886  139.5074  168.3944 N.ar    1  UNL1       -0.2271
     29 C         139.8712  140.2863  169.3242 C.ar    1  UNL1        0.0772
     30 C         140.7533  141.3736  168.7859 C.ar    1  UNL1        0.0477
     31 C         141.6359  142.1525  169.7156 C.3     1  UNL1        0.0494
     32 C         141.6363  141.8442  171.1835 C.3     1  UNL1        0.0738
     33 N         140.7541  140.7570  171.7218 N.3     1  UNL1       -0.2922
     34 C         139.8716  139.9780  170.7921 C.3     1  UNL1        0.1150
     35 H         140.1431  141.1895  172.4146 H       1  UNL1        0.1236
@<TRIPOS>BOND
     1     1     2    2
     2     2     3   am
     3     3    14    1
     4    14    15   ar
     5    15    16   ar
     6    16    17   ar
     7    17    18   ar
     8    18    20    1
     9    20    21    1
    10    20    22    1
    11    20    23    1
    12    18    19   ar
    13     2     4   am
    14     4     5   ar
    15     5     6   ar
    16     6     7   ar
    17     7     8   ar
    18     8     9   ar
    19     9    24    1
    20    24    25    1
    21    25    26   ar
    22    26    27   ar
    23    27    28   ar
    24    28    29   ar
    25    29    30   ar
    26    30    31    1
    27    31    32    1
    28    32    33    1
    29    33    34    1
    30     9    10   ar
    31    10    11   ar
    32    11    12   ar
    33    19    14   ar
    34    12     4   ar
    35    12     7   ar
    36    30    25   ar
    37    34    29    1
    38     3    13    1
    39    33    35    1
@<TRIPOS>MOLECULE
*****
 35 39 0 0 0
SMALL
GASTEIGER

@<TRIPOS>ATOM
      1 O         137.5550  139.7071  159.5328 O.2     1  UNL1       -0.2489
      2 C         138.1478  141.0773  159.3865 C.2     1  UNL1        0.3237
      3 N         138.1763  141.7425  158.0424 N.am    1  UNL1       -0.2657
      4 N         138.7121  141.7822  160.5843 N.ar    1  UNL1       -0.2609
      5 C         139.3340  143.1472  160.5922 C.ar    1  UNL1        0.0842
      6 C         139.7598  143.4544  161.9973 C.ar    1  UNL1        0.0207
      7 C         139.4011  142.2793  162.8577 C.ar    1  UNL1        0.0208
      8 C         139.5805  142.0169  164.3237 C.ar    1  UNL1        0.0390
      9 C         139.1123  140.7209  164.9164 C.ar    1  UNL1        0.1473
     10 C         138.4647  139.6874  164.0431 C.ar    1  UNL1        0.0390
     11 C         138.2854  139.9499  162.5772 C.ar    1  UNL1        0.0208
     12 C         138.7536  141.2458  161.9845 C.ar    1  UNL1        0.0683
     13 H         138.5654  142.6417  157.9464 H       1  UNL1        0.1566
     14 C         137.6120  141.0376  156.8446 C.ar    1  UNL1        0.0517
     15 C         138.4368  140.0177  156.1170 C.ar    1  UNL1        0.0147
     16 C         137.8726  139.3128  154.9192 C.ar    1  UNL1        0.0012
     17 C         136.4836  139.6278  154.4489 C.ar    1  UNL1        0.0039
     18 C         135.6587  140.6478  155.1764 C.ar    1  UNL1        0.0727
     19 C         136.2230  141.3527  156.3743 C.ar    1  UNL1        0.0186
     20 C         134.2696  140.9629  154.7061 C.3     1  UNL1        0.4186
     21 F         132.8805  141.2780  154.2359 F       1  UNL1       -0.1659
     22 F         134.7505  140.9622  153.2853 F       1  UNL1       -0.1659
     23 F         133.7888  140.9636  156.1270 F       1  UNL1       -0.1659
     24 O         139.2916  140.4585  166.3823 O.3     1  UNL1       -0.4363
     25 C         140.6019  139.9404  166.8967 C.ar    1  UNL1        0.2282
     26 N         141.5629  139.2697  165.9604 N.ar    1  UNL1       -0.1893
     27 C         142.8732  138.7516  166.4748 C.ar    1  UNL1        0.2012
     28 N         143.2226  138.9042  167.9255 N.ar    1  UNL1       -0.2271
     29 C         142.2616  139.5749  168.8619 C.ar    1  UNL1        0.0772
     30 C         140.9513  140.0930  168.3475 C.ar    1  UNL1        0.0477
     31 C         139.9903  140.7637  169.2838 C.3     1  UNL1        0.0494
     32 C         140.3397  140.9163  170.7345 C.3     1  UNL1        0.0738
     33 N         141.6501  140.3982  171.2489 N.3     1  UNL1       -0.2922
     34 C         142.6110  139.7275  170.3126 C.3     1  UNL1        0.1150
     35 H         141.4324  139.7224  171.9813 H       1  UNL1        0.1236
@<TRIPOS>BOND
     1     1     2    2
     2     2     3   am
     3     3    14    1
     4    14    15   ar
     5    15    16   ar
     6    16    17   ar
     7    17    18   ar
     8    18    20    1
     9    20    21    1
    10    20    22    1
    11    20    23    1
    12    18    19   ar
    13     2     4   am
    14     4     5   ar
    15     5     6   ar
    16     6     7   ar
    17     7     8   ar
    18     8     9   ar
    19     9    24    1
    20    24    25    1
    21    25    26   ar
    22    26    27   ar
    23    27    28   ar
    24    28    29   ar
    25    29    30   ar
    26    30    31    1
    27    31    32    1
    28    32    33    1
    29    33    34    1
    30     9    10   ar
    31    10    11   ar
    32    11    12   ar
    33    19    14   ar
    34    12     4   ar
    35    12     7   ar
    36    30    25   ar
    37    34    29    1
    38     3    13    1
    39    33    35    1
