@<TRIPOS>MOLECULE
*****
 31 33 0 0 0
SMALL
GASTEIGER

@<TRIPOS>ATOM
      1 C         143.5489  139.0271  162.4375 C.2     1  UNL1        0.2221
      2 O         144.4874  139.8230  161.5795 O.2     1  UNL1       -0.2751
      3 N         142.8840  137.8016  161.8846 N.am    1  UNL1       -0.3042
      4 H         142.2681  137.2793  162.4477 H       1  UNL1        0.1494
      5 C         142.4553  140.7464  168.0809 C.2     1  UNL1        0.4046
      6 O         142.0090  139.7390  169.0987 O.2     1  UNL1       -0.2262
      7 N         142.7287  140.3166  166.6700 N.am    1  UNL1       -0.2460
      8 C         143.1751  141.3240  165.6522 C.3     1  UNL1        0.0972
      9 C         143.4485  140.8942  164.2414 C.3     1  UNL1        0.0307
     10 C         143.2755  139.4569  163.8483 C.3     1  UNL1        0.0799
     11 C         142.8292  138.4496  164.8661 C.3     1  UNL1        0.0307
     12 C         142.5558  138.8794  166.2770 C.3     1  UNL1        0.0972
     13 O         142.6283  142.1837  168.4739 O.3     1  UNL1       -0.4418
     14 C         142.4263  143.0390  170.4046 C.3     1  UNL1        0.0437
     15 C         141.5324  142.8974  169.2084 C.3     1  UNL1        0.1378
     16 C         140.6385  142.7559  168.0122 C.3     1  UNL1        0.0437
     17 C         140.4365  143.6112  169.9429 C.3     1  UNL1        0.0437
     18 C         143.1574  137.3717  160.4737 C.3     1  UNL1        0.0928
     19 C         142.6335  138.1848  159.3271 C.3     1  UNL1        0.0615
     20 C         141.1672  138.4854  159.2291 C.3     1  UNL1        0.1656
     21 N         140.5982  139.6817  159.9327 N.pl3   1  UNL1       -0.2201
     22 H         140.4985  140.5346  159.4512 H       1  UNL1        0.2456
     23 C         140.1812  139.5785  161.3699 C.cat   1  UNL1        0.4200
     24 N         139.7228  138.3323  162.0676 N.2     1  UNL1       -0.0679
     25 C         139.4076  138.6869  163.4906 C.2     1  UNL1        0.1887
     26 C         138.9147  137.8648  164.6443 C.2     1  UNL1        0.0395
     27 C         138.6853  138.5081  165.9797 C.2     1  UNL1       -0.0010
     28 C         138.9490  139.9736  166.1615 C.2     1  UNL1       -0.0181
     29 C         139.4420  140.7957  165.0078 C.3     1  UNL1        0.0932
     30 C         139.6713  140.1523  163.6723 C.2     1  UNL1        0.1744
     31 N         140.1494  140.7033  162.3617 N.2     1  UNL1       -0.0718
@<TRIPOS>BOND
     1    14    15    1
     2    15    16    1
     3    15    17    1
     4    15    13    1
     5    13     5    1
     6     5     6    2
     7     5     7   am
     8     7     8    1
     9     8     9    1
    10     9    10    1
    11    10     1    1
    12     1     2    2
    13     1     3   am
    14     3    18    1
    15    18    19    1
    16    19    20    1
    17    20    21    1
    18    21    23    1
    19    23    24    2
    20    24    25    1
    21    25    26    2
    22    26    27    1
    23    27    28    2
    24    28    29    1
    25    29    30    1
    26    30    31    2
    27    10    11    1
    28    11    12    1
    29    12     7    1
    30    31    23    1
    31    30    25    1
    32     3     4    1
    33    21    22    1
@<TRIPOS>MOLECULE
*****
 31 33 0 0 0
SMALL
GASTEIGER

@<TRIPOS>ATOM
      1 C         138.4297  139.3184  167.4718 C.2     1  UNL1        0.2221
      2 O         137.4182  138.4624  168.1748 O.2     1  UNL1       -0.2751
      3 N         139.2963  140.2556  168.2596 N.am    1  UNL1       -0.3042
      4 H         139.9602  140.8174  167.7982 H       1  UNL1        0.1494
      5 C         139.0094  138.9933  161.5087 C.2     1  UNL1        0.4046
      6 O         139.4193  137.7023  160.8643 O.2     1  UNL1       -0.2262
      7 N         138.8645  139.0746  162.9995 N.am    1  UNL1       -0.2460
      8 C         138.4545  140.3656  163.6439 C.3     1  UNL1        0.0972
      9 C         138.3096  140.4469  165.1346 C.3     1  UNL1        0.0307
     10 C         138.5747  139.2371  165.9810 C.3     1  UNL1        0.0799
     11 C         138.9846  137.9462  165.3366 C.3     1  UNL1        0.0307
     12 C         139.1295  137.8649  163.8458 C.3     1  UNL1        0.0972
     13 O         138.7444  140.2031  160.6623 O.3     1  UNL1       -0.4418
     14 C         138.6901  140.1688  158.5420 C.3     1  UNL1        0.0437
     15 C         139.7019  140.5790  159.5706 C.3     1  UNL1        0.1378
     16 C         140.7136  140.9892  160.5992 C.3     1  UNL1        0.0437
     17 C         140.6594  140.9549  158.4789 C.3     1  UNL1        0.0437
     18 C         139.1514  140.3369  169.7503 C.3     1  UNL1        0.0928
     19 C         140.2927  139.9369  170.6377 C.3     1  UNL1        0.0615
     20 C         141.3873  140.9171  170.9396 C.3     1  UNL1        0.1656
     21 N         142.6553  140.8956  170.1386 N.pl3   1  UNL1       -0.2201
     22 H         143.5099  141.1376  170.5632 H       1  UNL1        0.2456
     23 C         142.6212  140.5056  168.6906 C.cat   1  UNL1        0.4200
     24 N         142.2440  141.3982  167.5457 N.2     1  UNL1       -0.0679
     25 C         142.3480  140.5987  166.2808 C.2     1  UNL1        0.1887
     26 C         142.0977  140.9542  164.8452 C.2     1  UNL1        0.0395
     27 C         142.2890  139.9230  163.7728 C.2     1  UNL1       -0.0010
     28 C         142.7305  138.5363  164.1360 C.2     1  UNL1       -0.0181
     29 C         142.9807  138.1807  165.5716 C.3     1  UNL1        0.0932
     30 C         142.7895  139.2119  166.6440 C.2     1  UNL1        0.1744
     31 N         142.9583  139.1544  168.1333 N.2     1  UNL1       -0.0718
@<TRIPOS>BOND
     1    14    15    1
     2    15    16    1
     3    15    17    1
     4    15    13    1
     5    13     5    1
     6     5     6    2
     7     5     7   am
     8     7     8    1
     9     8     9    1
    10     9    10    1
    11    10     1    1
    12     1     2    2
    13     1     3   am
    14     3    18    1
    15    18    19    1
    16    19    20    1
    17    20    21    1
    18    21    23    1
    19    23    24    2
    20    24    25    1
    21    25    26    2
    22    26    27    1
    23    27    28    2
    24    28    29    1
    25    29    30    1
    26    30    31    2
    27    10    11    1
    28    11    12    1
    29    12     7    1
    30    31    23    1
    31    30    25    1
    32     3     4    1
    33    21    22    1
@<TRIPOS>MOLECULE
*****
 31 33 0 0 0
SMALL
GASTEIGER

@<TRIPOS>ATOM
      1 C         139.0277  139.0704  162.3618 C.2     1  UNL1        0.2221
      2 O         137.8055  138.2346  162.1213 O.2     1  UNL1       -0.2751
      3 N         139.8021  139.6182  161.1999 N.am    1  UNL1       -0.3042
      4 H         140.6043  140.1667  161.3577 H       1  UNL1        0.1494
      5 C         140.8183  140.2220  167.9713 C.2     1  UNL1        0.4046
      6 O         139.8136  140.6143  169.0137 O.2     1  UNL1       -0.2262
      7 N         140.3706  139.9341  166.5689 N.am    1  UNL1       -0.2460
      8 C         141.3754  139.5417  165.5266 C.3     1  UNL1        0.0972
      9 C         140.9278  139.2538  164.1242 C.3     1  UNL1        0.0307
     10 C         139.4753  139.3583  163.7642 C.3     1  UNL1        0.0799
     11 C         138.4706  139.7506  164.8065 C.3     1  UNL1        0.0307
     12 C         138.9182  140.0385  166.2089 C.3     1  UNL1        0.0972
     13 O         142.2707  140.1175  168.3314 O.3     1  UNL1       -0.4418
     14 C         142.9632  140.3668  170.3209 C.3     1  UNL1        0.0437
     15 C         142.9366  141.2260  169.0916 C.3     1  UNL1        0.1378
     16 C         142.9099  142.0851  167.8623 C.3     1  UNL1        0.0437
     17 C         143.6024  142.3344  169.8519 C.3     1  UNL1        0.0437
     18 C         139.3545  139.3303  159.7975 C.3     1  UNL1        0.0928
     19 C         138.2272  140.1147  159.1941 C.3     1  UNL1        0.0615
     20 C         138.5091  141.3999  158.4737 C.3     1  UNL1        0.1656
     21 N         138.2958  142.7118  159.1688 N.pl3   1  UNL1       -0.2201
     22 H         137.8931  143.4669  158.6823 H       1  UNL1        0.2456
     23 C         138.6962  142.8731  160.6054 C.cat   1  UNL1        0.4200
     24 N         137.7777  143.2007  161.7452 N.2     1  UNL1       -0.0679
     25 C         138.5991  143.2653  162.9986 C.2     1  UNL1        0.1887
     26 C         138.2327  143.5489  164.4253 C.2     1  UNL1        0.0395
     27 C         139.2925  143.5447  165.4868 C.2     1  UNL1       -0.0010
     28 C         140.7186  143.2570  165.1217 C.2     1  UNL1       -0.0181
     29 C         141.0850  142.9734  163.6951 C.3     1  UNL1        0.0932
     30 C         140.0253  142.9776  162.6335 C.2     1  UNL1        0.1744
     31 N         140.0852  142.7352  161.1545 N.2     1  UNL1       -0.0718
@<TRIPOS>BOND
     1    14    15    1
     2    15    16    1
     3    15    17    1
     4    15    13    1
     5    13     5    1
     6     5     6    2
     7     5     7   am
     8     7     8    1
     9     8     9    1
    10     9    10    1
    11    10     1    1
    12     1     2    2
    13     1     3   am
    14     3    18    1
    15    18    19    1
    16    19    20    1
    17    20    21    1
    18    21    23    1
    19    23    24    2
    20    24    25    1
    21    25    26    2
    22    26    27    1
    23    27    28    2
    24    28    29    1
    25    29    30    1
    26    30    31    2
    27    10    11    1
    28    11    12    1
    29    12     7    1
    30    31    23    1
    31    30    25    1
    32     3     4    1
    33    21    22    1
@<TRIPOS>MOLECULE
*****
 31 33 0 0 0
SMALL
GASTEIGER

@<TRIPOS>ATOM
      1 C         139.5461  143.8999  161.9373 C.2     1  UNL1        0.2221
      2 O         138.9157  145.2318  161.6565 O.2     1  UNL1       -0.2751
      3 N         139.7535  142.9183  160.8222 N.am    1  UNL1       -0.3042
      4 H         140.1672  142.0442  161.0065 H       1  UNL1        0.1494
      5 C         141.2378  142.4990  167.5208 C.2     1  UNL1        0.4046
      6 O         140.4459  142.9996  168.6923 O.2     1  UNL1       -0.2262
      7 N         140.8149  142.8492  166.1249 N.am    1  UNL1       -0.2460
      8 C         141.6068  142.3487  164.9535 C.3     1  UNL1        0.0972
      9 C         141.1839  142.6989  163.5576 C.3     1  UNL1        0.0307
     10 C         139.9690  143.5497  163.3332 C.3     1  UNL1        0.0799
     11 C         139.1771  144.0502  164.5046 C.3     1  UNL1        0.0307
     12 C         139.6001  143.7000  165.9005 C.3     1  UNL1        0.0972
     13 O         142.4527  141.6482  167.7452 O.3     1  UNL1       -0.4418
     14 C         141.7402  139.8312  168.5763 C.3     1  UNL1        0.0437
     15 C         142.6379  140.9349  169.0517 C.3     1  UNL1        0.1378
     16 C         143.5356  142.0386  169.5271 C.3     1  UNL1        0.0437
     17 C         142.8230  140.2216  170.3582 C.3     1  UNL1        0.0437
     18 C         139.3305  143.2685  159.4264 C.3     1  UNL1        0.0928
     19 C         138.3383  142.4056  158.7046 C.3     1  UNL1        0.0615
     20 C         138.5708  140.9279  158.5929 C.3     1  UNL1        0.1656
     21 N         137.6949  139.9718  159.3470 N.pl3   1  UNL1       -0.2201
     22 H         136.9643  139.5027  158.8828 H       1  UNL1        0.2456
     23 C         137.9322  139.7303  160.8083 C.cat   1  UNL1        0.4200
     24 N         137.7298  140.7269  161.9109 N.2     1  UNL1       -0.0679
     25 C         138.0860  140.0624  163.2076 C.2     1  UNL1        0.1887
     26 C         138.0802  140.5569  164.6237 C.2     1  UNL1        0.0395
     27 C         138.4969  139.6441  165.7386 C.2     1  UNL1       -0.0010
     28 C         138.9194  138.2367  165.4374 C.2     1  UNL1       -0.0181
     29 C         138.9251  137.7421  164.0213 C.3     1  UNL1        0.0932
     30 C         138.5085  138.6550  162.9064 C.2     1  UNL1        0.1744
     31 N         138.4134  138.4497  161.4236 N.2     1  UNL1       -0.0718
@<TRIPOS>BOND
     1    14    15    1
     2    15    16    1
     3    15    17    1
     4    15    13    1
     5    13     5    1
     6     5     6    2
     7     5     7   am
     8     7     8    1
     9     8     9    1
    10     9    10    1
    11    10     1    1
    12     1     2    2
    13     1     3   am
    14     3    18    1
    15    18    19    1
    16    19    20    1
    17    20    21    1
    18    21    23    1
    19    23    24    2
    20    24    25    1
    21    25    26    2
    22    26    27    1
    23    27    28    2
    24    28    29    1
    25    29    30    1
    26    30    31    2
    27    10    11    1
    28    11    12    1
    29    12     7    1
    30    31    23    1
    31    30    25    1
    32     3     4    1
    33    21    22    1
@<TRIPOS>MOLECULE
*****
 31 33 0 0 0
SMALL
GASTEIGER

@<TRIPOS>ATOM
      1 C         139.6843  143.7714  161.7331 C.2     1  UNL1        0.2221
      2 O         139.1978  145.1692  161.4887 O.2     1  UNL1       -0.2751
      3 N         139.7350  142.7865  160.6030 N.am    1  UNL1       -0.3042
      4 H         140.0543  141.8692  160.7634 H       1  UNL1        0.1494
      5 C         141.4274  142.1204  167.2318 C.2     1  UNL1        0.4046
      6 O         142.4250  141.0132  167.4015 O.2     1  UNL1       -0.2262
      7 N         140.9916  142.5331  165.8571 N.am    1  UNL1       -0.2460
      8 C         139.9940  143.6404  165.6875 C.3     1  UNL1        0.0972
      9 C         139.5582  144.0532  164.3128 C.3     1  UNL1        0.0307
     10 C         140.1201  143.3587  163.1078 C.3     1  UNL1        0.0799
     11 C         141.1177  142.2515  163.2775 C.3     1  UNL1        0.0307
     12 C         141.5535  141.8387  164.6522 C.3     1  UNL1        0.0972
     13 O         140.8655  142.8149  168.4369 O.3     1  UNL1       -0.4418
     14 C         142.0579  142.9997  170.1816 C.3     1  UNL1        0.0437
     15 C         140.8986  142.1389  169.7755 C.3     1  UNL1        0.1378
     16 C         139.7393  141.2780  169.3694 C.3     1  UNL1        0.0437
     17 C         140.9317  141.4628  171.1141 C.3     1  UNL1        0.0437
     18 C         139.2992  143.1993  159.2283 C.3     1  UNL1        0.0928
     19 C         138.2288  142.4257  158.5170 C.3     1  UNL1        0.0615
     20 C         138.3331  140.9339  158.4009 C.3     1  UNL1        0.1656
     21 N         137.4360  140.0534  159.2193 N.pl3   1  UNL1       -0.2201
     22 H         136.6566  139.6206  158.8015 H       1  UNL1        0.2456
     23 C         137.7264  139.8322  160.6742 C.cat   1  UNL1        0.4200
     24 N         138.2951  138.5833  161.2798 N.2     1  UNL1       -0.0679
     25 C         138.4192  138.8003  162.7589 C.2     1  UNL1        0.1887
     26 C         138.9167  137.9172  163.8646 C.2     1  UNL1        0.0395
     27 C         138.9221  138.4171  165.2788 C.2     1  UNL1       -0.0010
     28 C         138.4301  139.8001  165.5872 C.2     1  UNL1       -0.0181
     29 C         137.9326  140.6832  164.4815 C.3     1  UNL1        0.0932
     30 C         137.9272  140.1833  163.0673 C.2     1  UNL1        0.1744
     31 N         137.4990  140.8210  161.7789 N.2     1  UNL1       -0.0718
@<TRIPOS>BOND
     1    14    15    1
     2    15    16    1
     3    15    17    1
     4    15    13    1
     5    13     5    1
     6     5     6    2
     7     5     7   am
     8     7     8    1
     9     8     9    1
    10     9    10    1
    11    10     1    1
    12     1     2    2
    13     1     3   am
    14     3    18    1
    15    18    19    1
    16    19    20    1
    17    20    21    1
    18    21    23    1
    19    23    24    2
    20    24    25    1
    21    25    26    2
    22    26    27    1
    23    27    28    2
    24    28    29    1
    25    29    30    1
    26    30    31    2
    27    10    11    1
    28    11    12    1
    29    12     7    1
    30    31    23    1
    31    30    25    1
    32     3     4    1
    33    21    22    1
@<TRIPOS>MOLECULE
*****
 31 33 0 0 0
SMALL
GASTEIGER

@<TRIPOS>ATOM
      1 C         140.4909  141.2065  161.7349 C.2     1  UNL1        0.2221
      2 O         139.3282  141.0468  160.8007 O.2     1  UNL1       -0.2751
      3 N         141.8184  141.6655  161.2084 N.am    1  UNL1       -0.3042
      4 H         142.5815  141.7704  161.8215 H       1  UNL1        0.1494
      5 C         139.8319  140.0095  167.5772 C.2     1  UNL1        0.4046
      6 O         138.5431  139.4334  168.0840 O.2     1  UNL1       -0.2262
      7 N         139.9967  140.3088  166.1166 N.am    1  UNL1       -0.2460
      8 C         141.2856  140.8849  165.6098 C.3     1  UNL1        0.0972
      9 C         141.4503  141.1842  164.1492 C.3     1  UNL1        0.0307
     10 C         140.3262  140.9073  163.1954 C.3     1  UNL1        0.0799
     11 C         139.0373  140.3311  163.7023 C.3     1  UNL1        0.0307
     12 C         138.8726  140.0319  165.1628 C.3     1  UNL1        0.0972
     13 O         140.9561  140.2864  168.5310 O.3     1  UNL1       -0.4418
     14 C         140.8347  142.3859  168.8097 C.3     1  UNL1        0.0437
     15 C         140.7354  141.1891  169.7085 C.3     1  UNL1        0.1378
     16 C         140.6361  139.9923  170.6073 C.3     1  UNL1        0.0437
     17 C         140.5148  142.0917  170.8860 C.3     1  UNL1        0.0437
     18 C         141.9831  141.9648  159.7478 C.3     1  UNL1        0.0928
     19 C         142.8081  143.1391  159.3112 C.3     1  UNL1        0.0615
     20 C         142.1399  144.3533  158.7377 C.3     1  UNL1        0.1656
     21 N         141.6648  145.4477  159.6467 N.pl3   1  UNL1       -0.2201
     22 H         141.8532  146.3883  159.4251 H       1  UNL1        0.2456
     23 C         140.9025  145.1092  160.8935 C.cat   1  UNL1        0.4200
     24 N         141.4758  145.0009  162.2754 N.2     1  UNL1       -0.0679
     25 C         140.3608  144.6442  163.2132 C.2     1  UNL1        0.1887
     26 C         140.3319  144.4071  164.6940 C.2     1  UNL1        0.0395
     27 C         139.0406  144.0578  165.3725 C.2     1  UNL1       -0.0010
     28 C         137.7781  143.9457  164.5703 C.2     1  UNL1       -0.0181
     29 C         137.8070  144.1828  163.0894 C.3     1  UNL1        0.0932
     30 C         139.0983  144.5321  162.4109 C.2     1  UNL1        0.1744
     31 N         139.4332  144.8194  160.9773 N.2     1  UNL1       -0.0718
@<TRIPOS>BOND
     1    14    15    1
     2    15    16    1
     3    15    17    1
     4    15    13    1
     5    13     5    1
     6     5     6    2
     7     5     7   am
     8     7     8    1
     9     8     9    1
    10     9    10    1
    11    10     1    1
    12     1     2    2
    13     1     3   am
    14     3    18    1
    15    18    19    1
    16    19    20    1
    17    20    21    1
    18    21    23    1
    19    23    24    2
    20    24    25    1
    21    25    26    2
    22    26    27    1
    23    27    28    2
    24    28    29    1
    25    29    30    1
    26    30    31    2
    27    10    11    1
    28    11    12    1
    29    12     7    1
    30    31    23    1
    31    30    25    1
    32     3     4    1
    33    21    22    1
@<TRIPOS>MOLECULE
*****
 31 33 0 0 0
SMALL
GASTEIGER

@<TRIPOS>ATOM
      1 C         140.6411  145.2917  161.9979 C.2     1  UNL1        0.2221
      2 O         139.9415  146.6185  161.9765 O.2     1  UNL1       -0.2751
      3 N         141.1737  144.7041  160.7248 N.am    1  UNL1       -0.3042
      4 H         141.6328  143.8333  160.7388 H       1  UNL1        0.1494
      5 C         141.3087  142.3355  167.1762 C.2     1  UNL1        0.4046
      6 O         142.6450  141.7635  167.5464 O.2     1  UNL1       -0.2262
      7 N         141.1418  143.0745  165.8816 N.am    1  UNL1       -0.2460
      8 C         139.8054  143.6466  165.5115 C.3     1  UNL1        0.0972
      9 C         139.6385  144.3856  164.2169 C.3     1  UNL1        0.0307
     10 C         140.8080  144.5527  163.2925 C.3     1  UNL1        0.0799
     11 C         142.1443  143.9806  163.6626 C.3     1  UNL1        0.0307
     12 C         142.3112  143.2416  164.9572 C.3     1  UNL1        0.0972
     13 O         140.1393  142.1685  168.1007 O.3     1  UNL1       -0.4418
     14 C         140.1727  140.5978  169.5261 C.3     1  UNL1        0.0437
     15 C         140.3601  142.0850  169.5820 C.3     1  UNL1        0.1378
     16 C         140.5475  143.5722  169.6378 C.3     1  UNL1        0.0437
     17 C         140.5810  142.0016  171.0633 C.3     1  UNL1        0.0437
     18 C         141.0068  145.4431  159.4302 C.3     1  UNL1        0.0928
     19 C         140.2632  144.8065  158.2936 C.3     1  UNL1        0.0615
     20 C         139.7435  143.4058  158.4283 C.3     1  UNL1        0.1656
     21 N         138.5582  143.1267  159.3042 N.pl3   1  UNL1       -0.2201
     22 H         137.6616  143.4263  159.0293 H       1  UNL1        0.2456
     23 C         138.7390  142.3911  160.5989 C.cat   1  UNL1        0.4200
     24 N         140.0032  141.7368  161.0721 N.2     1  UNL1       -0.0679
     25 C         139.7329  141.1219  162.4134 C.2     1  UNL1        0.1887
     26 C         140.6051  140.3478  163.3567 C.2     1  UNL1        0.0395
     27 C         140.0460  139.8479  164.6557 C.2     1  UNL1       -0.0010
     28 C         138.6149  140.1221  165.0114 C.2     1  UNL1       -0.0181
     29 C         137.7427  140.8963  164.0681 C.3     1  UNL1        0.0932
     30 C         138.3017  141.3962  162.7691 C.2     1  UNL1        0.1744
     31 N         137.6875  142.1806  161.6477 N.2     1  UNL1       -0.0718
@<TRIPOS>BOND
     1    14    15    1
     2    15    16    1
     3    15    17    1
     4    15    13    1
     5    13     5    1
     6     5     6    2
     7     5     7   am
     8     7     8    1
     9     8     9    1
    10     9    10    1
    11    10     1    1
    12     1     2    2
    13     1     3   am
    14     3    18    1
    15    18    19    1
    16    19    20    1
    17    20    21    1
    18    21    23    1
    19    23    24    2
    20    24    25    1
    21    25    26    2
    22    26    27    1
    23    27    28    2
    24    28    29    1
    25    29    30    1
    26    30    31    2
    27    10    11    1
    28    11    12    1
    29    12     7    1
    30    31    23    1
    31    30    25    1
    32     3     4    1
    33    21    22    1
@<TRIPOS>MOLECULE
*****
 31 33 0 0 0
SMALL
GASTEIGER

@<TRIPOS>ATOM
      1 C         143.9980  141.6219  162.2878 C.2     1  UNL1        0.2221
      2 O         145.4920  141.5153  162.3698 O.2     1  UNL1       -0.2751
      3 N         143.3421  141.9846  160.9885 N.am    1  UNL1       -0.3042
      4 H         142.3616  142.0545  160.9347 H       1  UNL1        0.1494
      5 C         140.6457  140.5977  167.1574 C.2     1  UNL1        0.4046
      6 O         139.2501  140.0682  167.0094 O.2     1  UNL1       -0.2262
      7 N         141.4837  140.8537  165.9400 N.am    1  UNL1       -0.2460
      8 C         142.8794  141.3832  166.0881 C.3     1  UNL1        0.0972
      9 C         143.7175  141.6393  164.8707 C.3     1  UNL1        0.0307
     10 C         143.1599  141.3659  163.5052 C.3     1  UNL1        0.0799
     11 C         141.7643  140.8364  163.3572 C.3     1  UNL1        0.0307
     12 C         140.9262  140.5803  164.5746 C.3     1  UNL1        0.0972
     13 O         141.2033  140.8711  168.5229 O.3     1  UNL1       -0.4418
     14 C         140.1715  140.4376  170.3249 C.3     1  UNL1        0.0437
     15 C         140.4094  141.6743  169.5101 C.3     1  UNL1        0.1378
     16 C         140.6473  142.9110  168.6953 C.3     1  UNL1        0.0437
     17 C         139.6155  142.4775  170.4974 C.3     1  UNL1        0.0437
     18 C         144.1802  142.2406  159.7711 C.3     1  UNL1        0.0928
     19 C         143.6921  143.1804  158.7086 C.3     1  UNL1        0.0615
     20 C         142.2582  143.6206  158.6978 C.3     1  UNL1        0.1656
     21 N         141.8393  144.8310  159.4784 N.pl3   1  UNL1       -0.2201
     22 H         142.0564  145.7314  159.1446 H       1  UNL1        0.2456
     23 C         141.0895  144.6696  160.7675 C.cat   1  UNL1        0.4200
     24 N         141.6998  144.4949  162.1265 N.2     1  UNL1       -0.0679
     25 C         140.5853  144.3719  163.1229 C.2     1  UNL1        0.1887
     26 C         140.5855  144.1828  164.6108 C.2     1  UNL1        0.0395
     27 C         139.2866  144.0925  165.3556 C.2     1  UNL1       -0.0010
     28 C         137.9875  144.1913  164.6123 C.2     1  UNL1       -0.0181
     29 C         137.9872  144.3804  163.1243 C.3     1  UNL1        0.0932
     30 C         139.2861  144.4707  162.3796 C.2     1  UNL1        0.1744
     31 N         139.5978  144.6547  160.9239 N.2     1  UNL1       -0.0718
@<TRIPOS>BOND
     1    14    15    1
     2    15    16    1
     3    15    17    1
     4    15    13    1
     5    13     5    1
     6     5     6    2
     7     5     7   am
     8     7     8    1
     9     8     9    1
    10     9    10    1
    11    10     1    1
    12     1     2    2
    13     1     3   am
    14     3    18    1
    15    18    19    1
    16    19    20    1
    17    20    21    1
    18    21    23    1
    19    23    24    2
    20    24    25    1
    21    25    26    2
    22    26    27    1
    23    27    28    2
    24    28    29    1
    25    29    30    1
    26    30    31    2
    27    10    11    1
    28    11    12    1
    29    12     7    1
    30    31    23    1
    31    30    25    1
    32     3     4    1
    33    21    22    1
@<TRIPOS>MOLECULE
*****
 31 33 0 0 0
SMALL
GASTEIGER

@<TRIPOS>ATOM
      1 C         141.4512  140.5879  161.3459 C.2     1  UNL1        0.2221
      2 O         141.0152  141.9421  160.8702 O.2     1  UNL1       -0.2751
      3 N         141.5781  139.4554  160.3706 N.am    1  UNL1       -0.3042
      4 H         141.8643  138.5667  160.6827 H       1  UNL1        0.1494
      5 C         142.6877  139.7016  167.1498 C.2     1  UNL1        0.4046
      6 O         143.3642  138.4365  167.5878 O.2     1  UNL1       -0.2262
      7 N         142.3786  139.9231  165.6988 N.am    1  UNL1       -0.2460
      8 C         141.7021  141.1883  165.2608 C.3     1  UNL1        0.0972
      9 C         141.3930  141.4099  163.8098 C.3     1  UNL1        0.0307
     10 C         141.7603  140.3663  162.7969 C.3     1  UNL1        0.0799
     11 C         142.4368  139.1012  163.2349 C.3     1  UNL1        0.0307
     12 C         142.7459  138.8796  164.6859 C.3     1  UNL1        0.0972
     13 O         142.3203  140.7452  168.1628 O.3     1  UNL1       -0.4418
     14 C         140.3104  140.1927  168.5563 C.3     1  UNL1        0.0437
     15 C         141.5467  140.3606  169.3890 C.3     1  UNL1        0.1378
     16 C         142.7830  140.5285  170.2217 C.3     1  UNL1        0.0437
     17 C         140.7731  139.9760  170.6152 C.3     1  UNL1        0.0437
     18 C         141.2690  139.6770  158.9196 C.3     1  UNL1        0.0928
     19 C         139.9654  139.2018  158.3494 C.3     1  UNL1        0.0615
     20 C         138.8062  140.1473  158.2388 C.3     1  UNL1        0.1656
     21 N         137.6493  140.0296  159.1863 N.pl3   1  UNL1       -0.2201
     22 H         136.7285  140.1347  158.8543 H       1  UNL1        0.2456
     23 C         137.8955  139.7518  160.6396 C.cat   1  UNL1        0.4200
     24 N         138.4738  138.4911  161.2107 N.2     1  UNL1       -0.0679
     25 C         138.5423  138.6460  162.7011 C.2     1  UNL1        0.1887
     26 C         139.0234  137.7272  163.7847 C.2     1  UNL1        0.0395
     27 C         138.9686  138.1649  165.2183 C.2     1  UNL1       -0.0010
     28 C         138.4327  139.5214  165.5684 C.2     1  UNL1       -0.0181
     29 C         137.9515  140.4403  164.4848 C.3     1  UNL1        0.0932
     30 C         138.0063  140.0026  163.0512 C.2     1  UNL1        0.1744
     31 N         137.6066  140.6860  161.7771 N.2     1  UNL1       -0.0718
@<TRIPOS>BOND
     1    14    15    1
     2    15    16    1
     3    15    17    1
     4    15    13    1
     5    13     5    1
     6     5     6    2
     7     5     7   am
     8     7     8    1
     9     8     9    1
    10     9    10    1
    11    10     1    1
    12     1     2    2
    13     1     3   am
    14     3    18    1
    15    18    19    1
    16    19    20    1
    17    20    21    1
    18    21    23    1
    19    23    24    2
    20    24    25    1
    21    25    26    2
    22    26    27    1
    23    27    28    2
    24    28    29    1
    25    29    30    1
    26    30    31    2
    27    10    11    1
    28    11    12    1
    29    12     7    1
    30    31    23    1
    31    30    25    1
    32     3     4    1
    33    21    22    1
