@<TRIPOS>MOLECULE
*****
 32 36 0 0 0
SMALL
GASTEIGER

@<TRIPOS>ATOM
      1 N         140.1302  144.8730  158.9578 N.ar    1  UNL1       -0.2264
      2 C         140.3901  145.7065  160.1775 C.ar    1  UNL1        0.1212
      3 C         139.7677  145.0138  161.3534 C.ar    1  UNL1        0.1257
      4 N         139.7045  145.3690  162.8094 N.ar    1  UNL1       -0.2290
      5 C         138.9968  144.4624  163.7724 C.ar    1  UNL1        0.1230
      6 C         138.9337  144.8175  165.2285 C.3     1  UNL1        0.0719
      7 N         138.3523  143.2009  163.2795 N.ar    1  UNL1       -0.2827
      8 C         138.4154  142.8458  161.8235 C.ar    1  UNL1        0.2827
      9 O         137.7709  141.5842  161.3306 O.2     1  UNL1       -0.2652
     10 C         139.1231  143.7523  160.8605 C.ar    1  UNL1        0.1762
     11 N         139.3472  143.6652  159.3799 N.ar    1  UNL1       -0.1586
     12 C         140.2975  146.5541  155.3667 C.ar    1  UNL1        0.1402
     13 C         141.4654  145.8279  154.7678 C.ar    1  UNL1        0.0370
     14 C         142.1882  144.7834  155.5655 C.ar    1  UNL1        0.0047
     15 C         141.7431  144.4651  156.9622 C.ar    1  UNL1        0.0194
     16 C         140.5753  145.1913  157.5611 C.ar    1  UNL1        0.0859
     17 C         139.8524  146.2358  156.7633 C.ar    1  UNL1        0.0560
     18 C         139.0349  148.8217  155.2492 C.3     1  UNL1        0.2525
     19 O         139.5747  147.5986  154.5689 O.3     1  UNL1       -0.4714
     20 C         137.6446  142.2944  164.2425 C.3     1  UNL1        0.1115
     21 C         138.3580  141.1066  164.8169 C.3     1  UNL1        0.0388
     22 C         138.1733  139.7511  164.2018 C.3     1  UNL1        0.0048
     23 C         138.8868  138.5631  164.7762 C.3     1  UNL1        0.0174
     24 C         139.7850  138.7308  165.9658 C.3     1  UNL1        0.0722
     25 N         139.9696  140.0864  166.5810 N.3     1  UNL1       -0.2706
     26 C         139.2562  141.2742  166.0066 C.3     1  UNL1        0.0741
     27 C         140.8679  140.2541  167.7707 C.3     1  UNL1        0.1020
     28 C         140.6484  141.3933  168.7214 C.3     1  UNL1        0.1312
     29 C         141.3886  142.6981  168.7198 C.3     1  UNL1        0.0336
     30 C         140.8480  143.5390  169.8381 C.3     1  UNL1        0.0346
     31 C         139.7738  142.7541  170.5309 C.3     1  UNL1        0.1422
     32 O         139.6504  141.4280  169.8408 O.3     1  UNL1       -0.3548
@<TRIPOS>BOND
     1    18    19    1
     2    19    12    1
     3    12    13   ar
     4    13    14   ar
     5    14    15   ar
     6    15    16   ar
     7    16     1    1
     8     1     2   ar
     9     2     3   ar
    10     3     4   ar
    11     4     5   ar
    12     5     6    1
    13     5     7   ar
    14     7    20    1
    15    21    20    1
    16    21    22    1
    17    22    23    1
    18    23    24    1
    19    24    25    1
    20    25    27    1
    21    28    27    1
    22    28    29    1
    23    29    30    1
    24    30    31    1
    25    31    32    1
    26    25    26    1
    27     7     8   ar
    28     8     9    2
    29     8    10   ar
    30    10    11   ar
    31    16    17   ar
    32    17    12   ar
    33    11     1   ar
    34    10     3   ar
    35    26    21    1
    36    32    28    1
@<TRIPOS>MOLECULE
*****
 32 36 0 0 0
SMALL
GASTEIGER

@<TRIPOS>ATOM
      1 N         141.2782  144.8926  159.1160 N.ar    1  UNL1       -0.2264
      2 C         140.1672  144.8751  160.1235 C.ar    1  UNL1        0.1212
      3 C         140.7416  144.4409  161.4394 C.ar    1  UNL1        0.1257
      4 N         140.1191  144.2415  162.7895 N.ar    1  UNL1       -0.2290
      5 C         140.9627  143.7913  163.9452 C.ar    1  UNL1        0.1230
      6 C         140.3402  143.5920  165.2954 C.3     1  UNL1        0.0719
      7 N         142.4287  143.5406  163.7509 N.ar    1  UNL1       -0.2827
      8 C         143.0512  143.7399  162.4008 C.ar    1  UNL1        0.2827
      9 O         144.5173  143.4891  162.2065 O.2     1  UNL1       -0.2652
     10 C         142.2077  144.1901  161.2451 C.ar    1  UNL1        0.1762
     11 N         142.5393  144.4693  159.8091 N.ar    1  UNL1       -0.1586
     12 C         139.9017  146.5324  155.7743 C.ar    1  UNL1        0.1402
     13 C         140.8954  146.0176  154.7756 C.ar    1  UNL1        0.0370
     14 C         142.0168  145.1278  155.2237 C.ar    1  UNL1        0.0047
     15 C         142.1444  144.7528  156.6705 C.ar    1  UNL1        0.0194
     16 C         141.1506  145.2676  157.6692 C.ar    1  UNL1        0.0859
     17 C         140.0292  146.1574  157.2211 C.ar    1  UNL1        0.0560
     18 C         138.8334  148.8948  155.6069 C.3     1  UNL1        0.2525
     19 O         138.7803  147.4222  155.3263 O.3     1  UNL1       -0.4714
     20 C         143.2724  143.0904  164.9066 C.3     1  UNL1        0.1115
     21 C         143.3159  141.6391  165.2830 C.3     1  UNL1        0.0388
     22 C         143.8070  140.6225  164.2954 C.3     1  UNL1        0.0048
     23 C         143.8506  139.1711  164.6717 C.3     1  UNL1        0.0174
     24 C         143.4029  138.7363  166.0357 C.3     1  UNL1        0.0722
     25 N         142.9117  139.7529  167.0234 N.3     1  UNL1       -0.2706
     26 C         142.8682  141.2042  166.6470 C.3     1  UNL1        0.0741
     27 C         142.4640  139.3180  168.3874 C.3     1  UNL1        0.1020
     28 C         141.4582  140.1352  169.1426 C.3     1  UNL1        0.1312
     29 C         139.9719  140.1107  168.9406 C.3     1  UNL1        0.0336
     30 C         139.3570  141.0807  169.9054 C.3     1  UNL1        0.0346
     31 C         140.4631  141.7047  170.7037 C.3     1  UNL1        0.1422
     32 O         141.7616  141.1204  170.2323 O.3     1  UNL1       -0.3548
@<TRIPOS>BOND
     1    18    19    1
     2    19    12    1
     3    12    13   ar
     4    13    14   ar
     5    14    15   ar
     6    15    16   ar
     7    16     1    1
     8     1     2   ar
     9     2     3   ar
    10     3     4   ar
    11     4     5   ar
    12     5     6    1
    13     5     7   ar
    14     7    20    1
    15    21    20    1
    16    21    22    1
    17    22    23    1
    18    23    24    1
    19    24    25    1
    20    25    27    1
    21    28    27    1
    22    28    29    1
    23    29    30    1
    24    30    31    1
    25    31    32    1
    26    25    26    1
    27     7     8   ar
    28     8     9    2
    29     8    10   ar
    30    10    11   ar
    31    16    17   ar
    32    17    12   ar
    33    11     1   ar
    34    10     3   ar
    35    26    21    1
    36    32    28    1
@<TRIPOS>MOLECULE
*****
 32 36 0 0 0
SMALL
GASTEIGER

@<TRIPOS>ATOM
      1 N         142.8618  137.5009  158.2663 N.ar    1  UNL1       -0.2264
      2 C         143.0799  137.1563  159.7097 C.ar    1  UNL1        0.1212
      3 C         143.5006  138.4053  160.4259 C.ar    1  UNL1        0.1257
      4 N         143.8510  138.6702  161.8602 N.ar    1  UNL1       -0.2290
      5 C         144.2433  140.0517  162.2935 C.ar    1  UNL1        0.1230
      6 C         144.5937  140.3167  163.7278 C.3     1  UNL1        0.0719
      7 N         144.2852  141.1681  161.2927 N.ar    1  UNL1       -0.2827
      8 C         143.9348  140.9032  159.8585 C.ar    1  UNL1        0.2827
      9 O         143.9767  142.0197  158.8576 O.2     1  UNL1       -0.2652
     10 C         143.5425  139.5218  159.4251 C.ar    1  UNL1        0.1762
     11 N         143.1477  138.9628  158.0903 N.ar    1  UNL1       -0.1586
     12 C         142.8207  134.3752  155.8211 C.ar    1  UNL1        0.1402
     13 C         141.5753  134.6494  155.0313 C.ar    1  UNL1        0.0370
     14 C         140.7587  135.8741  155.3199 C.ar    1  UNL1        0.0047
     15 C         141.1876  136.8246  156.3982 C.ar    1  UNL1        0.0194
     16 C         142.4330  136.5504  157.1880 C.ar    1  UNL1        0.0859
     17 C         143.2496  135.3257  156.8995 C.ar    1  UNL1        0.0560
     18 C         143.1105  132.1003  154.6002 C.3     1  UNL1        0.2525
     19 O         143.6374  133.1505  155.5326 O.3     1  UNL1       -0.4714
     20 C         144.6775  142.5496  161.7260 C.3     1  UNL1        0.1115
     21 C         143.6415  143.4869  162.2719 C.3     1  UNL1        0.0388
     22 C         144.0032  144.4521  163.3617 C.3     1  UNL1        0.0048
     23 C         142.9672  145.3895  163.9077 C.3     1  UNL1        0.0174
     24 C         141.5695  145.3617  163.3638 C.3     1  UNL1        0.0722
     25 N         141.2079  144.3964  162.2740 N.3     1  UNL1       -0.2706
     26 C         142.2438  143.4591  161.7281 C.3     1  UNL1        0.0741
     27 C         139.8101  144.3686  161.7302 C.3     1  UNL1        0.1020
     28 C         138.9050  143.2152  162.0468 C.3     1  UNL1        0.1312
     29 C         138.0378  143.0832  163.2636 C.3     1  UNL1        0.0336
     30 C         137.3050  141.7777  163.1712 C.3     1  UNL1        0.0346
     31 C         137.7193  141.1027  161.8973 C.3     1  UNL1        0.1422
     32 O         138.7081  141.9911  161.2024 O.3     1  UNL1       -0.3548
@<TRIPOS>BOND
     1    18    19    1
     2    19    12    1
     3    12    13   ar
     4    13    14   ar
     5    14    15   ar
     6    15    16   ar
     7    16     1    1
     8     1     2   ar
     9     2     3   ar
    10     3     4   ar
    11     4     5   ar
    12     5     6    1
    13     5     7   ar
    14     7    20    1
    15    21    20    1
    16    21    22    1
    17    22    23    1
    18    23    24    1
    19    24    25    1
    20    25    27    1
    21    28    27    1
    22    28    29    1
    23    29    30    1
    24    30    31    1
    25    31    32    1
    26    25    26    1
    27     7     8   ar
    28     8     9    2
    29     8    10   ar
    30    10    11   ar
    31    16    17   ar
    32    17    12   ar
    33    11     1   ar
    34    10     3   ar
    35    26    21    1
    36    32    28    1
@<TRIPOS>MOLECULE
*****
 32 36 0 0 0
SMALL
GASTEIGER

@<TRIPOS>ATOM
      1 N         139.8878  140.7313  166.2316 N.ar    1  UNL1       -0.2264
      2 C         140.8506  139.9374  165.3993 C.ar    1  UNL1        0.1212
      3 C         140.3563  139.9469  163.9832 C.ar    1  UNL1        0.1257
      4 N         140.8973  139.3306  162.7272 N.ar    1  UNL1       -0.2290
      5 C         140.1699  139.5142  161.4282 C.ar    1  UNL1        0.1230
      6 C         140.7108  138.8979  160.1721 C.3     1  UNL1        0.0719
      7 N         138.9017  140.3140  161.3852 N.ar    1  UNL1       -0.2827
      8 C         138.3608  140.9303  162.6412 C.ar    1  UNL1        0.2827
      9 O         137.0925  141.7301  162.5983 O.2     1  UNL1       -0.2652
     10 C         139.0881  140.7467  163.9402 C.ar    1  UNL1        0.1762
     11 N         138.7985  141.2315  165.3299 N.ar    1  UNL1       -0.1586
     12 C         140.9501  142.3590  169.6917 C.ar    1  UNL1        0.1402
     13 C         140.2106  141.4808  170.6571 C.ar    1  UNL1        0.0370
     14 C         139.3635  140.3528  170.1473 C.ar    1  UNL1        0.0047
     15 C         139.2559  140.1030  168.6721 C.ar    1  UNL1        0.0194
     16 C         139.9954  140.9812  167.7068 C.ar    1  UNL1        0.0859
     17 C         140.8425  142.1092  168.2166 C.ar    1  UNL1        0.0560
     18 C         143.2149  143.2310  170.6191 C.3     1  UNL1        0.2525
     19 O         141.7972  143.4870  170.2015 O.3     1  UNL1       -0.4714
     20 C         138.1743  140.4976  160.0862 C.3     1  UNL1        0.1115
     21 C         138.5321  141.6388  159.1811 C.3     1  UNL1        0.0388
     22 C         138.1775  141.5807  157.7248 C.3     1  UNL1        0.0048
     23 C         138.5353  142.7220  156.8195 C.3     1  UNL1        0.0174
     24 C         139.2477  143.9214  157.3706 C.3     1  UNL1        0.0722
     25 N         139.6023  143.9796  158.8270 N.3     1  UNL1       -0.2706
     26 C         139.2445  142.8383  159.7322 C.3     1  UNL1        0.0741
     27 C         140.3148  145.1791  159.3781 C.3     1  UNL1        0.1020
     28 C         140.9523  145.1152  160.7343 C.3     1  UNL1        0.1312
     29 C         140.3360  145.5786  162.0210 C.3     1  UNL1        0.0336
     30 C         141.3209  145.3265  163.1239 C.3     1  UNL1        0.0346
     31 C         142.5459  144.7074  162.5190 C.3     1  UNL1        0.1422
     32 O         142.3181  144.5768  161.0421 O.3     1  UNL1       -0.3548
@<TRIPOS>BOND
     1    18    19    1
     2    19    12    1
     3    12    13   ar
     4    13    14   ar
     5    14    15   ar
     6    15    16   ar
     7    16     1    1
     8     1     2   ar
     9     2     3   ar
    10     3     4   ar
    11     4     5   ar
    12     5     6    1
    13     5     7   ar
    14     7    20    1
    15    21    20    1
    16    21    22    1
    17    22    23    1
    18    23    24    1
    19    24    25    1
    20    25    27    1
    21    28    27    1
    22    28    29    1
    23    29    30    1
    24    30    31    1
    25    31    32    1
    26    25    26    1
    27     7     8   ar
    28     8     9    2
    29     8    10   ar
    30    10    11   ar
    31    16    17   ar
    32    17    12   ar
    33    11     1   ar
    34    10     3   ar
    35    26    21    1
    36    32    28    1
@<TRIPOS>MOLECULE
*****
 32 36 0 0 0
SMALL
GASTEIGER

@<TRIPOS>ATOM
      1 N         140.1061  144.6904  158.9305 N.ar    1  UNL1       -0.2264
      2 C         140.6828  145.2965  160.1755 C.ar    1  UNL1        0.1212
      3 C         140.1490  144.5345  161.3521 C.ar    1  UNL1        0.1257
      4 N         140.3713  144.6823  162.8281 N.ar    1  UNL1       -0.2290
      5 C         139.6869  143.7530  163.7863 C.ar    1  UNL1        0.1230
      6 C         139.9093  143.9007  165.2625 C.3     1  UNL1        0.0719
      7 N         138.7803  142.6761  163.2685 N.ar    1  UNL1       -0.2827
      8 C         138.5580  142.5283  161.7925 C.ar    1  UNL1        0.2827
      9 O         137.6513  141.4514  161.2747 O.2     1  UNL1       -0.2652
     10 C         139.2423  143.4576  160.8343 C.ar    1  UNL1        0.1762
     11 N         139.2158  143.5539  159.3376 N.ar    1  UNL1       -0.1586
     12 C         140.0647  146.8871  155.6255 C.ar    1  UNL1        0.1402
     13 C         140.9062  146.0439  154.7140 C.ar    1  UNL1        0.0370
     14 C         141.4811  144.7495  155.2080 C.ar    1  UNL1        0.0047
     15 C         141.2143  144.2984  156.6135 C.ar    1  UNL1        0.0194
     16 C         140.3728  145.1416  157.5250 C.ar    1  UNL1        0.0859
     17 C         139.7979  146.4360  157.0310 C.ar    1  UNL1        0.0560
     18 C         139.9391  148.7488  153.8176 C.3     1  UNL1        0.2525
     19 O         139.4898  148.1815  155.1315 O.3     1  UNL1       -0.4714
     20 C         138.0960  141.7468  164.2268 C.3     1  UNL1        0.1115
     21 C         138.6827  140.3957  164.5097 C.3     1  UNL1        0.0388
     22 C         138.0291  139.4885  165.5095 C.3     1  UNL1        0.0048
     23 C         138.6159  138.1373  165.7924 C.3     1  UNL1        0.0174
     24 C         139.8564  137.6933  165.0755 C.3     1  UNL1        0.0722
     25 N         140.5101  138.6006  164.0756 N.3     1  UNL1       -0.2706
     26 C         139.9233  139.9517  163.7927 C.3     1  UNL1        0.0741
     27 C         141.7507  138.1566  163.3586 C.3     1  UNL1        0.1020
     28 C         142.9872  139.0043  163.4042 C.3     1  UNL1        0.1312
     29 C         143.9570  139.0884  164.5456 C.3     1  UNL1        0.0336
     30 C         145.0403  140.0529  164.1634 C.3     1  UNL1        0.0346
     31 C         144.7403  140.5649  162.7857 C.3     1  UNL1        0.1422
     32 O         143.4714  139.9168  162.3166 O.3     1  UNL1       -0.3548
@<TRIPOS>BOND
     1    18    19    1
     2    19    12    1
     3    12    13   ar
     4    13    14   ar
     5    14    15   ar
     6    15    16   ar
     7    16     1    1
     8     1     2   ar
     9     2     3   ar
    10     3     4   ar
    11     4     5   ar
    12     5     6    1
    13     5     7   ar
    14     7    20    1
    15    21    20    1
    16    21    22    1
    17    22    23    1
    18    23    24    1
    19    24    25    1
    20    25    27    1
    21    28    27    1
    22    28    29    1
    23    29    30    1
    24    30    31    1
    25    31    32    1
    26    25    26    1
    27     7     8   ar
    28     8     9    2
    29     8    10   ar
    30    10    11   ar
    31    16    17   ar
    32    17    12   ar
    33    11     1   ar
    34    10     3   ar
    35    26    21    1
    36    32    28    1
@<TRIPOS>MOLECULE
*****
 32 36 0 0 0
SMALL
GASTEIGER

@<TRIPOS>ATOM
      1 N         140.1415  144.8907  159.0240 N.ar    1  UNL1       -0.2264
      2 C         140.2933  145.7921  160.2132 C.ar    1  UNL1        0.1212
      3 C         139.7414  145.0767  161.4105 C.ar    1  UNL1        0.1257
      4 N         139.6239  145.4751  162.8518 N.ar    1  UNL1       -0.2290
      5 C         139.0135  144.5299  163.8439 C.ar    1  UNL1        0.1230
      6 C         138.8961  144.9284  165.2853 C.3     1  UNL1        0.0719
      7 N         138.5206  143.1864  163.3946 N.ar    1  UNL1       -0.2827
      8 C         138.6380  142.7880  161.9533 C.ar    1  UNL1        0.2827
      9 O         138.1451  141.4444  161.5040 O.2     1  UNL1       -0.2652
     10 C         139.2484  143.7331  160.9612 C.ar    1  UNL1        0.1762
     11 N         139.4957  143.6182  159.4862 N.ar    1  UNL1       -0.1586
     12 C         140.3075  146.6296  155.4604 C.ar    1  UNL1        0.1402
     13 C         141.4022  145.8375  154.8092 C.ar    1  UNL1        0.0370
     14 C         142.0767  144.7298  155.5628 C.ar    1  UNL1        0.0047
     15 C         141.6565  144.4142  156.9678 C.ar    1  UNL1        0.0194
     16 C         140.5617  145.2063  157.6190 C.ar    1  UNL1        0.0859
     17 C         139.8872  146.3140  156.8654 C.ar    1  UNL1        0.0560
     18 C         138.8933  148.8090  155.4513 C.3     1  UNL1        0.2525
     19 O         139.6330  147.7373  154.7068 O.3     1  UNL1       -0.4714
     20 C         137.9102  142.2412  164.3866 C.3     1  UNL1        0.1115
     21 C         138.7222  141.1085  164.9411 C.3     1  UNL1        0.0388
     22 C         138.1385  139.7282  165.0048 C.3     1  UNL1        0.0048
     23 C         138.9505  138.5953  165.5593 C.3     1  UNL1        0.0174
     24 C         140.3462  138.8429  166.0500 C.3     1  UNL1        0.0722
     25 N         140.9299  140.2233  165.9863 N.3     1  UNL1       -0.2706
     26 C         140.1179  141.3560  165.4318 C.3     1  UNL1        0.0741
     27 C         142.3256  140.4708  166.4771 C.3     1  UNL1        0.1020
     28 C         143.4267  140.7491  165.4973 C.3     1  UNL1        0.1312
     29 C         144.1710  139.7247  164.6931 C.3     1  UNL1        0.0336
     30 C         145.1813  140.4431  163.8485 C.3     1  UNL1        0.0346
     31 C         145.0614  141.9115  164.1307 C.3     1  UNL1        0.1422
     32 O         143.9770  142.1006  165.1497 O.3     1  UNL1       -0.3548
@<TRIPOS>BOND
     1    18    19    1
     2    19    12    1
     3    12    13   ar
     4    13    14   ar
     5    14    15   ar
     6    15    16   ar
     7    16     1    1
     8     1     2   ar
     9     2     3   ar
    10     3     4   ar
    11     4     5   ar
    12     5     6    1
    13     5     7   ar
    14     7    20    1
    15    21    20    1
    16    21    22    1
    17    22    23    1
    18    23    24    1
    19    24    25    1
    20    25    27    1
    21    28    27    1
    22    28    29    1
    23    29    30    1
    24    30    31    1
    25    31    32    1
    26    25    26    1
    27     7     8   ar
    28     8     9    2
    29     8    10   ar
    30    10    11   ar
    31    16    17   ar
    32    17    12   ar
    33    11     1   ar
    34    10     3   ar
    35    26    21    1
    36    32    28    1
@<TRIPOS>MOLECULE
*****
 32 36 0 0 0
SMALL
GASTEIGER

@<TRIPOS>ATOM
      1 N         142.2864  140.5705  166.9994 N.ar    1  UNL1       -0.2264
      2 C         142.2530  139.4090  166.0508 C.ar    1  UNL1        0.1212
      3 C         142.8814  139.8459  164.7608 C.ar    1  UNL1        0.1257
      4 N         143.1240  139.1251  163.4678 N.ar    1  UNL1       -0.2290
      5 C         143.7885  139.8360  162.3262 C.ar    1  UNL1        0.1230
      6 C         144.0311  139.1152  161.0332 C.3     1  UNL1        0.0719
      7 N         144.2102  141.2674  162.4775 N.ar    1  UNL1       -0.2827
      8 C         143.9676  141.9882  163.7704 C.ar    1  UNL1        0.2827
      9 O         144.3894  143.4197  163.9217 O.2     1  UNL1       -0.2652
     10 C         143.3032  141.2774  164.9120 C.ar    1  UNL1        0.1762
     11 N         142.9354  141.7252  166.2956 N.ar    1  UNL1       -0.1586
     12 C         139.7610  140.6381  170.0601 C.ar    1  UNL1        0.1402
     13 C         140.7154  140.5878  171.2162 C.ar    1  UNL1        0.0370
     14 C         142.1934  140.5317  170.9668 C.ar    1  UNL1        0.0047
     15 C         142.7170  140.5259  169.5611 C.ar    1  UNL1        0.0194
     16 C         141.7627  140.5762  168.4050 C.ar    1  UNL1        0.0859
     17 C         140.2847  140.6323  168.6544 C.ar    1  UNL1        0.0560
     18 C         137.5138  139.4284  170.5463 C.3     1  UNL1        0.2525
     19 O         138.2830  140.6942  170.3096 O.3     1  UNL1       -0.4714
     20 C         144.8747  141.9783  161.3358 C.3     1  UNL1        0.1115
     21 C         144.0433  142.6832  160.3055 C.3     1  UNL1        0.0388
     22 C         144.3086  142.4590  158.8463 C.3     1  UNL1        0.0048
     23 C         143.4772  143.1640  157.8158 C.3     1  UNL1        0.0174
     24 C         142.3806  144.0933  158.2446 C.3     1  UNL1        0.0722
     25 N         142.1153  144.3175  159.7039 N.3     1  UNL1       -0.2706
     26 C         142.9467  143.6126  160.7343 C.3     1  UNL1        0.0741
     27 C         141.0186  145.2468  160.1327 C.3     1  UNL1        0.1020
     28 C         140.1071  144.8616  161.2599 C.3     1  UNL1        0.1312
     29 C         140.1407  145.4207  162.6514 C.3     1  UNL1        0.0336
     30 C         139.0563  144.7543  163.4451 C.3     1  UNL1        0.0346
     31 C         138.3525  143.7833  162.5442 C.3     1  UNL1        0.1422
     32 O         139.0019  143.8496  161.1937 O.3     1  UNL1       -0.3548
@<TRIPOS>BOND
     1    18    19    1
     2    19    12    1
     3    12    13   ar
     4    13    14   ar
     5    14    15   ar
     6    15    16   ar
     7    16     1    1
     8     1     2   ar
     9     2     3   ar
    10     3     4   ar
    11     4     5   ar
    12     5     6    1
    13     5     7   ar
    14     7    20    1
    15    21    20    1
    16    21    22    1
    17    22    23    1
    18    23    24    1
    19    24    25    1
    20    25    27    1
    21    28    27    1
    22    28    29    1
    23    29    30    1
    24    30    31    1
    25    31    32    1
    26    25    26    1
    27     7     8   ar
    28     8     9    2
    29     8    10   ar
    30    10    11   ar
    31    16    17   ar
    32    17    12   ar
    33    11     1   ar
    34    10     3   ar
    35    26    21    1
    36    32    28    1
@<TRIPOS>MOLECULE
*****
 32 36 0 0 0
SMALL
GASTEIGER

@<TRIPOS>ATOM
      1 N         142.3786  138.2382  159.2872 N.ar    1  UNL1       -0.2264
      2 C         143.3938  139.3350  159.4148 C.ar    1  UNL1        0.1212
      3 C         143.6538  139.5583  160.8751 C.ar    1  UNL1        0.1257
      4 N         144.5583  140.5108  161.5993 N.ar    1  UNL1       -0.2290
      5 C         144.6082  140.5045  163.0985 C.ar    1  UNL1        0.1230
      6 C         145.5128  141.4571  163.8228 C.3     1  UNL1        0.0719
      7 N         143.7538  139.5457  163.8734 N.ar    1  UNL1       -0.2827
      8 C         142.8493  138.5932  163.1492 C.ar    1  UNL1        0.2827
      9 O         141.9948  137.6343  163.9241 O.2     1  UNL1       -0.2652
     10 C         142.7993  138.5994  161.6500 C.ar    1  UNL1        0.1762
     11 N         142.0112  137.7836  160.6686 N.ar    1  UNL1       -0.1586
     12 C         139.8707  137.4692  156.3091 C.ar    1  UNL1        0.1402
     13 C         140.7254  136.5991  155.4361 C.ar    1  UNL1        0.0370
     14 C         142.1313  136.2752  155.8468 C.ar    1  UNL1        0.0047
     15 C         142.6823  136.8216  157.1305 C.ar    1  UNL1        0.0194
     16 C         141.8275  137.6918  158.0035 C.ar    1  UNL1        0.0859
     17 C         140.4217  138.0156  157.5928 C.ar    1  UNL1        0.0560
     18 C         138.0229  137.5557  154.4847 C.3     1  UNL1        0.2525
     19 O         138.4648  137.7930  155.8984 O.3     1  UNL1       -0.4714
     20 C         143.8037  139.5394  165.3726 C.3     1  UNL1        0.1115
     21 C         142.6845  140.1498  166.1629 C.3     1  UNL1        0.0388
     22 C         142.3206  139.5878  167.5051 C.3     1  UNL1        0.0048
     23 C         141.2013  140.1982  168.2955 C.3     1  UNL1        0.0174
     24 C         140.4460  141.3708  167.7436 C.3     1  UNL1        0.0722
     25 N         140.8100  141.9329  166.4013 N.3     1  UNL1       -0.2706
     26 C         141.9292  141.3225  165.6110 C.3     1  UNL1        0.0741
     27 C         140.0547  143.1055  165.8494 C.3     1  UNL1        0.1020
     28 C         139.1068  142.9146  164.7026 C.3     1  UNL1        0.1312
     29 C         138.0659  141.8405  164.5886 C.3     1  UNL1        0.0336
     30 C         137.3492  142.0263  163.2841 C.3     1  UNL1        0.0346
     31 C         137.9471  143.2151  162.5918 C.3     1  UNL1        0.1422
     32 O         139.0334  143.7641  163.4685 O.3     1  UNL1       -0.3548
@<TRIPOS>BOND
     1    18    19    1
     2    19    12    1
     3    12    13   ar
     4    13    14   ar
     5    14    15   ar
     6    15    16   ar
     7    16     1    1
     8     1     2   ar
     9     2     3   ar
    10     3     4   ar
    11     4     5   ar
    12     5     6    1
    13     5     7   ar
    14     7    20    1
    15    21    20    1
    16    21    22    1
    17    22    23    1
    18    23    24    1
    19    24    25    1
    20    25    27    1
    21    28    27    1
    22    28    29    1
    23    29    30    1
    24    30    31    1
    25    31    32    1
    26    25    26    1
    27     7     8   ar
    28     8     9    2
    29     8    10   ar
    30    10    11   ar
    31    16    17   ar
    32    17    12   ar
    33    11     1   ar
    34    10     3   ar
    35    26    21    1
    36    32    28    1
@<TRIPOS>MOLECULE
*****
 32 36 0 0 0
SMALL
GASTEIGER

@<TRIPOS>ATOM
      1 N         141.8137  138.7092  158.8038 N.ar    1  UNL1       -0.2264
      2 C         140.7987  139.8033  158.9542 C.ar    1  UNL1        0.1212
      3 C         140.1646  139.6645  160.3065 C.ar    1  UNL1        0.1257
      4 N         139.1002  140.4601  161.0023 N.ar    1  UNL1       -0.2290
      5 C         138.6590  140.0758  162.3835 C.ar    1  UNL1        0.1230
      6 C         137.5946  140.8714  163.0794 C.3     1  UNL1        0.0719
      7 N         139.2822  138.8961  163.0688 N.ar    1  UNL1       -0.2827
      8 C         140.3465  138.1005  162.3730 C.ar    1  UNL1        0.2827
      9 O         140.9697  136.9207  163.0584 O.2     1  UNL1       -0.2652
     10 C         140.7877  138.4847  160.9919 C.ar    1  UNL1        0.1762
     11 N         141.8070  137.8943  160.0631 N.ar    1  UNL1       -0.1586
     12 C         143.7875  136.8365  155.9146 C.ar    1  UNL1        0.1402
     13 C         144.4215  137.9968  155.2063 C.ar    1  UNL1        0.0370
     14 C         144.1863  139.3945  155.6971 C.ar    1  UNL1        0.0047
     15 C         143.3170  139.6319  156.8963 C.ar    1  UNL1        0.0194
     16 C         142.6830  138.4717  157.6047 C.ar    1  UNL1        0.0859
     17 C         142.9182  137.0739  157.1138 C.ar    1  UNL1        0.0560
     18 C         143.7185  134.2702  156.3138 C.3     1  UNL1        0.2525
     19 O         144.0227  135.4387  155.4238 O.3     1  UNL1       -0.4714
     20 C         138.8410  138.5117  164.4501 C.3     1  UNL1        0.1115
     21 C         139.4261  139.2052  165.6444 C.3     1  UNL1        0.0388
     22 C         138.6700  139.2350  166.9395 C.3     1  UNL1        0.0048
     23 C         139.2551  139.9285  168.1340 C.3     1  UNL1        0.0174
     24 C         140.5965  140.5922  168.0333 C.3     1  UNL1        0.0722
     25 N         141.3527  140.5624  166.7382 N.3     1  UNL1       -0.2706
     26 C         140.7676  139.8689  165.5438 C.3     1  UNL1        0.0741
     27 C         142.6942  141.2261  166.6375 C.3     1  UNL1        0.1020
     28 C         142.8935  142.3750  165.6941 C.3     1  UNL1        0.1312
     29 C         144.2135  142.9185  165.2331 C.3     1  UNL1        0.0336
     30 C         143.9438  144.0616  164.3001 C.3     1  UNL1        0.0346
     31 C         142.4572  144.2247  164.1844 C.3     1  UNL1        0.1422
     32 O         141.8081  143.1824  165.0459 O.3     1  UNL1       -0.3548
@<TRIPOS>BOND
     1    18    19    1
     2    19    12    1
     3    12    13   ar
     4    13    14   ar
     5    14    15   ar
     6    15    16   ar
     7    16     1    1
     8     1     2   ar
     9     2     3   ar
    10     3     4   ar
    11     4     5   ar
    12     5     6    1
    13     5     7   ar
    14     7    20    1
    15    21    20    1
    16    21    22    1
    17    22    23    1
    18    23    24    1
    19    24    25    1
    20    25    27    1
    21    28    27    1
    22    28    29    1
    23    29    30    1
    24    30    31    1
    25    31    32    1
    26    25    26    1
    27     7     8   ar
    28     8     9    2
    29     8    10   ar
    30    10    11   ar
    31    16    17   ar
    32    17    12   ar
    33    11     1   ar
    34    10     3   ar
    35    26    21    1
    36    32    28    1
