@<TRIPOS>MOLECULE
*****
 27 30 0 0 0
SMALL
GASTEIGER

@<TRIPOS>ATOM
      1 C         139.4217  141.1802  165.3714 C.3     1  UNL1        0.1686
      2 C         140.3008  142.3788  165.5728 C.3     1  UNL1        0.0595
      3 C         139.8378  143.7326  165.1226 C.3     1  UNL1        0.0614
      4 C         139.0012  144.8341  164.5423 C.3     1  UNL1        0.0175
      5 C         137.7187  144.2318  164.0498 C.3     1  UNL1        0.0175
      6 C         137.7627  142.7580  164.3258 C.3     1  UNL1        0.0614
      7 C         138.0795  141.3355  164.7198 C.3     1  UNL1        0.0595
      8 N         139.0724  142.4495  164.9888 N.3     1  UNL1       -0.2713
      9 O         139.8847  139.8263  165.8216 O.3     1  UNL1       -0.4791
     10 C         140.9371  139.8244  169.6481 C.ar    1  UNL1        0.0561
     11 C         142.3792  139.4248  169.5453 C.ar    1  UNL1        0.0047
     12 C         142.9898  139.1590  168.2012 C.ar    1  UNL1        0.0033
     13 C         142.1583  139.2928  166.9600 C.ar    1  UNL1        0.0369
     14 C         140.7162  139.6924  167.0629 C.ar    1  UNL1        0.1385
     15 C         140.1056  139.9583  168.4068 C.ar    1  UNL1        0.0414
     16 N         139.5240  139.0231  171.6756 N.am    1  UNL1       -0.3253
     17 C         140.3265  140.0902  170.9922 C.2     1  UNL1        0.2428
     18 O         140.5185  141.4232  171.6528 O.2     1  UNL1       -0.2704
     19 H         139.1232  139.1975  172.5578 H       1  UNL1        0.1453
     20 H         139.3980  138.1482  171.2421 H       1  UNL1        0.1453
     21 C         139.5355  141.0957  165.4390 C.3     1  UNL1        0.1006
     22 C         139.7211  139.9950  164.4370 C.ar    1  UNL1        0.0130
     23 C         138.7728  138.8330  164.4149 C.ar    1  UNL1        0.0002
     24 C         138.9585  137.7324  163.4129 C.ar    1  UNL1        0.0204
     25 C         140.0925  137.7937  162.4330 C.ar    1  UNL1        0.0989
     26 N         141.0408  138.9557  162.4550 N.ar    1  UNL1       -0.2426
     27 C         140.8551  140.0563  163.4571 C.ar    1  UNL1        0.0959
@<TRIPOS>BOND
     1    16    17   am
     2    17    18    2
     3    17    10    1
     4    10    11   ar
     5    11    12   ar
     6    12    13   ar
     7    13    14   ar
     8    14     9    1
     9     1     9    1
    10     1     2    1
    11     3     2    1
    12     3     4    1
    13     4     5    1
    14     6     5    1
    15     6     7    1
    16     6     8    1
    17     8    21    1
    18    21    22    1
    19    22    23   ar
    20    23    24   ar
    21    24    25   ar
    22    25    26   ar
    23    26    27   ar
    24    14    15   ar
    25    15    10   ar
    26     7     1    1
    27    27    22   ar
    28     8     3    1
    29    16    19    1
    30    16    20    1
@<TRIPOS>MOLECULE
*****
 27 30 0 0 0
SMALL
GASTEIGER

@<TRIPOS>ATOM
      1 C         142.0019  142.0163  164.7693 C.3     1  UNL1        0.1686
      2 C         143.2347  142.7006  165.2811 C.3     1  UNL1        0.0595
      3 C         144.5737  142.3756  164.6881 C.3     1  UNL1        0.0614
      4 C         145.6461  141.7645  163.8358 C.3     1  UNL1        0.0175
      5 C         144.9956  140.7868  162.9026 C.3     1  UNL1        0.0175
      6 C         143.5211  140.7937  163.1781 C.3     1  UNL1        0.0614
      7 C         142.1080  141.0071  163.6646 C.3     1  UNL1        0.0595
      8 N         143.2604  141.7756  164.2816 N.3     1  UNL1       -0.2713
      9 O         140.6628  142.3412  165.3623 O.3     1  UNL1       -0.4791
     10 C         140.0672  142.1231  169.2798 C.ar    1  UNL1        0.0561
     11 C         139.5421  140.7240  169.4093 C.ar    1  UNL1        0.0047
     12 C         139.3906  139.8640  168.1897 C.ar    1  UNL1        0.0033
     13 C         139.7641  140.4031  166.8408 C.ar    1  UNL1        0.0369
     14 C         140.2892  141.8022  166.7113 C.ar    1  UNL1        0.1385
     15 C         140.4408  142.6622  167.9308 C.ar    1  UNL1        0.0414
     16 N         140.1548  144.4768  170.3766 N.am    1  UNL1       -0.3253
     17 C         140.2187  142.9832  170.4994 C.2     1  UNL1        0.2428
     18 O         140.4341  142.3496  171.8419 O.2     1  UNL1       -0.2704
     19 H         140.2542  145.0412  171.1770 H       1  UNL1        0.1453
     20 H         140.0134  144.8926  169.4955 H       1  UNL1        0.1453
     21 C         141.9214  142.1006  164.8746 C.3     1  UNL1        0.1006
     22 C         140.9257  142.8987  164.0862 C.ar    1  UNL1        0.0130
     23 C         140.9847  144.3975  164.1021 C.ar    1  UNL1        0.0002
     24 C         139.9890  145.1956  163.3137 C.ar    1  UNL1        0.0204
     25 C         138.9344  144.4950  162.5094 C.ar    1  UNL1        0.0989
     26 N         138.8754  142.9962  162.4935 N.ar    1  UNL1       -0.2426
     27 C         139.8711  142.1981  163.2820 C.ar    1  UNL1        0.0959
@<TRIPOS>BOND
     1    16    17   am
     2    17    18    2
     3    17    10    1
     4    10    11   ar
     5    11    12   ar
     6    12    13   ar
     7    13    14   ar
     8    14     9    1
     9     1     9    1
    10     1     2    1
    11     3     2    1
    12     3     4    1
    13     4     5    1
    14     6     5    1
    15     6     7    1
    16     6     8    1
    17     8    21    1
    18    21    22    1
    19    22    23   ar
    20    23    24   ar
    21    24    25   ar
    22    25    26   ar
    23    26    27   ar
    24    14    15   ar
    25    15    10   ar
    26     7     1    1
    27    27    22   ar
    28     8     3    1
    29    16    19    1
    30    16    20    1
@<TRIPOS>MOLECULE
*****
 27 30 0 0 0
SMALL
GASTEIGER

@<TRIPOS>ATOM
      1 C         140.7643  142.0095  167.3296 C.3     1  UNL1        0.1686
      2 C         142.0930  141.3157  167.3860 C.3     1  UNL1        0.0595
      3 C         143.0330  141.5869  168.5231 C.3     1  UNL1        0.0614
      4 C         143.6206  142.1406  169.7872 C.3     1  UNL1        0.0175
      5 C         142.6290  143.0983  170.3785 C.3     1  UNL1        0.0175
      6 C         141.4286  143.1364  169.4798 C.3     1  UNL1        0.0614
      7 C         140.3756  142.9744  168.4102 C.3     1  UNL1        0.0595
      8 N         141.6783  142.2022  168.3331 N.3     1  UNL1       -0.2713
      9 O         139.8243  141.7383  166.1924 O.3     1  UNL1       -0.4791
     10 C         139.2865  138.2852  164.3119 C.ar    1  UNL1        0.0561
     11 C         138.4892  137.5280  165.3321 C.ar    1  UNL1        0.0047
     12 C         138.1368  138.1743  166.6391 C.ar    1  UNL1        0.0033
     13 C         138.5819  139.5777  166.9258 C.ar    1  UNL1        0.0369
     14 C         139.3792  140.3349  165.9056 C.ar    1  UNL1        0.1385
     15 C         139.7316  139.6887  164.5987 C.ar    1  UNL1        0.0414
     16 N         138.6665  137.6766  161.8634 N.am    1  UNL1       -0.3253
     17 C         139.6389  137.6390  163.0049 C.2     1  UNL1        0.2428
     18 O         140.9637  136.9550  162.8394 O.2     1  UNL1       -0.2704
     19 H         138.8977  137.2524  161.0056 H       1  UNL1        0.1453
     20 H         137.7970  138.1255  161.9720 H       1  UNL1        0.1453
     21 C         140.7383  141.9311  167.1960 C.3     1  UNL1        0.1006
     22 C         140.6001  142.9274  166.0833 C.ar    1  UNL1        0.0130
     23 C         139.3516  143.7502  165.9641 C.ar    1  UNL1        0.0002
     24 C         139.2133  144.7465  164.8514 C.ar    1  UNL1        0.0204
     25 C         140.3236  144.9201  163.8578 C.ar    1  UNL1        0.0989
     26 N         141.5722  144.0973  163.9770 N.ar    1  UNL1       -0.2426
     27 C         141.7104  143.1010  165.0898 C.ar    1  UNL1        0.0959
@<TRIPOS>BOND
     1    16    17   am
     2    17    18    2
     3    17    10    1
     4    10    11   ar
     5    11    12   ar
     6    12    13   ar
     7    13    14   ar
     8    14     9    1
     9     1     9    1
    10     1     2    1
    11     3     2    1
    12     3     4    1
    13     4     5    1
    14     6     5    1
    15     6     7    1
    16     6     8    1
    17     8    21    1
    18    21    22    1
    19    22    23   ar
    20    23    24   ar
    21    24    25   ar
    22    25    26   ar
    23    26    27   ar
    24    14    15   ar
    25    15    10   ar
    26     7     1    1
    27    27    22   ar
    28     8     3    1
    29    16    19    1
    30    16    20    1
@<TRIPOS>MOLECULE
*****
 27 30 0 0 0
SMALL
GASTEIGER

@<TRIPOS>ATOM
      1 C         140.2198  140.9848  164.7070 C.3     1  UNL1        0.1686
      2 C         139.1778  140.1151  165.3455 C.3     1  UNL1        0.0595
      3 C         138.8729  138.7641  164.7695 C.3     1  UNL1        0.0614
      4 C         138.9002  137.5485  163.8911 C.3     1  UNL1        0.0175
      5 C         139.9274  137.7728  162.8212 C.3     1  UNL1        0.0175
      6 C         140.5348  139.1270  163.0384 C.3     1  UNL1        0.0614
      7 C         140.9568  140.5036  163.4924 C.3     1  UNL1        0.0595
      8 N         139.8831  139.7397  164.2425 N.3     1  UNL1       -0.2713
      9 O         140.5247  142.3359  165.2830 O.3     1  UNL1       -0.4791
     10 C         141.0348  143.0539  169.1526 C.ar    1  UNL1        0.0561
     11 C         142.4747  142.6707  169.3247 C.ar    1  UNL1        0.0047
     12 C         143.2646  142.1758  168.1495 C.ar    1  UNL1        0.0033
     13 C         142.6147  142.0642  166.8023 C.ar    1  UNL1        0.0369
     14 C         141.1747  142.4475  166.6302 C.ar    1  UNL1        0.1385
     15 C         140.3848  142.9424  167.8053 C.ar    1  UNL1        0.0414
     16 N         139.8284  142.5941  171.4072 N.am    1  UNL1       -0.3253
     17 C         140.2448  143.5488  170.3278 C.2     1  UNL1        0.2428
     18 O         139.8713  144.9985  170.4236 O.2     1  UNL1       -0.2704
     19 H         139.3099  142.9190  172.1785 H       1  UNL1        0.1453
     20 H         140.0736  141.6427  171.3444 H       1  UNL1        0.1453
     21 C         140.1880  141.0907  164.8185 C.3     1  UNL1        0.1006
     22 C         139.7135  142.3292  164.1179 C.ar    1  UNL1        0.0130
     23 C         138.3055  142.8083  164.3127 C.ar    1  UNL1        0.0002
     24 C         137.8310  144.0468  163.6121 C.ar    1  UNL1        0.0204
     25 C         138.7645  144.8063  162.7168 C.ar    1  UNL1        0.0989
     26 N         140.1726  144.3272  162.5220 N.ar    1  UNL1       -0.2426
     27 C         140.6470  143.0887  163.2226 C.ar    1  UNL1        0.0959
@<TRIPOS>BOND
     1    16    17   am
     2    17    18    2
     3    17    10    1
     4    10    11   ar
     5    11    12   ar
     6    12    13   ar
     7    13    14   ar
     8    14     9    1
     9     1     9    1
    10     1     2    1
    11     3     2    1
    12     3     4    1
    13     4     5    1
    14     6     5    1
    15     6     7    1
    16     6     8    1
    17     8    21    1
    18    21    22    1
    19    22    23   ar
    20    23    24   ar
    21    24    25   ar
    22    25    26   ar
    23    26    27   ar
    24    14    15   ar
    25    15    10   ar
    26     7     1    1
    27    27    22   ar
    28     8     3    1
    29    16    19    1
    30    16    20    1
@<TRIPOS>MOLECULE
*****
 27 30 0 0 0
SMALL
GASTEIGER

@<TRIPOS>ATOM
      1 C         141.5099  142.3165  165.8726 C.3     1  UNL1        0.1686
      2 C         140.4183  143.1904  165.3299 C.3     1  UNL1        0.0595
      3 C         140.7507  144.3029  164.3802 C.3     1  UNL1        0.0614
      4 C         141.5155  145.2476  163.5012 C.3     1  UNL1        0.0175
      5 C         142.9678  144.8808  163.5797 C.3     1  UNL1        0.0175
      6 C         143.1006  143.7094  164.5071 C.3     1  UNL1        0.0614
      7 C         142.9339  142.5551  165.4657 C.3     1  UNL1        0.0595
      8 N         141.7303  143.3522  165.0019 N.3     1  UNL1       -0.2713
      9 O         141.1777  141.2040  166.8224 O.3     1  UNL1       -0.4791
     10 C         139.5133  138.3122  164.6736 C.ar    1  UNL1        0.0561
     11 C         138.3620  137.9302  165.5559 C.ar    1  UNL1        0.0047
     12 C         138.1492  138.6395  166.8604 C.ar    1  UNL1        0.0033
     13 C         139.0877  139.7307  167.2825 C.ar    1  UNL1        0.0369
     14 C         140.2391  140.1127  166.4002 C.ar    1  UNL1        0.1385
     15 C         140.4519  139.4035  165.0958 C.ar    1  UNL1        0.0414
     16 N         138.6445  137.6039  162.3298 N.am    1  UNL1       -0.3253
     17 C         139.7260  137.6030  163.3691 C.2     1  UNL1        0.2428
     18 O         141.0204  136.8927  163.1039 O.2     1  UNL1       -0.2704
     19 H         138.7841  137.1384  161.4736 H       1  UNL1        0.1453
     20 H         137.7950  138.0700  162.5038 H       1  UNL1        0.1453
     21 C         141.3980  142.2397  165.9516 C.3     1  UNL1        0.1006
     22 C         141.6583  142.4040  167.4197 C.ar    1  UNL1        0.0130
     23 C         140.6197  143.0339  168.2997 C.ar    1  UNL1        0.0002
     24 C         140.8800  143.1981  169.7677 C.ar    1  UNL1        0.0204
     25 C         142.1790  142.7324  170.3558 C.ar    1  UNL1        0.0989
     26 N         143.2177  142.1024  169.4757 N.ar    1  UNL1       -0.2426
     27 C         142.9572  141.9382  168.0076 C.ar    1  UNL1        0.0959
@<TRIPOS>BOND
     1    16    17   am
     2    17    18    2
     3    17    10    1
     4    10    11   ar
     5    11    12   ar
     6    12    13   ar
     7    13    14   ar
     8    14     9    1
     9     1     9    1
    10     1     2    1
    11     3     2    1
    12     3     4    1
    13     4     5    1
    14     6     5    1
    15     6     7    1
    16     6     8    1
    17     8    21    1
    18    21    22    1
    19    22    23   ar
    20    23    24   ar
    21    24    25   ar
    22    25    26   ar
    23    26    27   ar
    24    14    15   ar
    25    15    10   ar
    26     7     1    1
    27    27    22   ar
    28     8     3    1
    29    16    19    1
    30    16    20    1
@<TRIPOS>MOLECULE
*****
 27 30 0 0 0
SMALL
GASTEIGER

@<TRIPOS>ATOM
      1 C         141.8092  140.4479  165.3894 C.3     1  UNL1        0.1686
      2 C         142.5572  141.5983  164.7835 C.3     1  UNL1        0.0595
      3 C         143.9676  141.4092  164.3090 C.3     1  UNL1        0.0614
      4 C         145.2936  140.7852  163.9892 C.3     1  UNL1        0.0175
      5 C         145.2441  139.3477  164.4148 C.3     1  UNL1        0.0175
      6 C         143.8874  139.0833  164.9977 C.3     1  UNL1        0.0614
      7 C         142.4715  139.1085  165.5207 C.3     1  UNL1        0.0595
      8 N         143.0985  140.3574  164.9323 N.3     1  UNL1       -0.2713
      9 O         140.3988  140.6370  165.8639 O.3     1  UNL1       -0.4791
     10 C         140.3995  142.4480  169.3952 C.ar    1  UNL1        0.0561
     11 C         139.5809  141.4878  170.2063 C.ar    1  UNL1        0.0047
     12 C         139.0350  140.2441  169.5700 C.ar    1  UNL1        0.0033
     13 C         139.3076  139.9605  168.1226 C.ar    1  UNL1        0.0369
     14 C         140.1262  140.9206  167.3114 C.ar    1  UNL1        0.1385
     15 C         140.6721  142.1643  167.9477 C.ar    1  UNL1        0.0414
     16 N         142.3792  143.7427  170.4698 N.am    1  UNL1       -0.3253
     17 C         140.9455  143.6917  170.0315 C.2     1  UNL1        0.2428
     18 O         140.0578  144.8846  170.2296 O.2     1  UNL1       -0.2704
     19 H         142.7375  144.5590  170.8874 H       1  UNL1        0.1453
     20 H         142.9618  142.9598  170.3398 H       1  UNL1        0.1453
     21 C         141.6882  140.5465  165.4068 C.3     1  UNL1        0.1006
     22 C         140.5445  140.0339  164.5826 C.ar    1  UNL1        0.0130
     23 C         140.1090  138.6043  164.7111 C.ar    1  UNL1        0.0002
     24 C         138.9653  138.0917  163.8870 C.ar    1  UNL1        0.0204
     25 C         138.2571  139.0087  162.9344 C.ar    1  UNL1        0.0989
     26 N         138.6926  140.4384  162.8059 N.ar    1  UNL1       -0.2426
     27 C         139.8363  140.9509  163.6300 C.ar    1  UNL1        0.0959
@<TRIPOS>BOND
     1    16    17   am
     2    17    18    2
     3    17    10    1
     4    10    11   ar
     5    11    12   ar
     6    12    13   ar
     7    13    14   ar
     8    14     9    1
     9     1     9    1
    10     1     2    1
    11     3     2    1
    12     3     4    1
    13     4     5    1
    14     6     5    1
    15     6     7    1
    16     6     8    1
    17     8    21    1
    18    21    22    1
    19    22    23   ar
    20    23    24   ar
    21    24    25   ar
    22    25    26   ar
    23    26    27   ar
    24    14    15   ar
    25    15    10   ar
    26     7     1    1
    27    27    22   ar
    28     8     3    1
    29    16    19    1
    30    16    20    1
@<TRIPOS>MOLECULE
*****
 27 30 0 0 0
SMALL
GASTEIGER

@<TRIPOS>ATOM
      1 C         139.3547  141.3198  165.4994 C.3     1  UNL1        0.1686
      2 C         140.1821  142.5694  165.5617 C.3     1  UNL1        0.0595
      3 C         139.7464  143.7953  164.8153 C.3     1  UNL1        0.0614
      4 C         138.9591  144.7341  163.9499 C.3     1  UNL1        0.0175
      5 C         137.7522  143.9990  163.4471 C.3     1  UNL1        0.0175
      6 C         137.7936  142.6058  164.0016 C.3     1  UNL1        0.0614
      7 C         138.0916  141.2961  164.6907 C.3     1  UNL1        0.0595
      8 N         139.0261  142.4800  164.8472 N.3     1  UNL1       -0.2713
      9 O         139.7904  140.0937  166.2459 O.3     1  UNL1       -0.4791
     10 C         141.6559  140.4115  169.7342 C.ar    1  UNL1        0.0561
     11 C         140.5013  140.2962  170.6848 C.ar    1  UNL1        0.0047
     12 C         139.1097  140.1134  170.1556 C.ar    1  UNL1        0.0033
     13 C         138.8727  140.0459  168.6761 C.ar    1  UNL1        0.0369
     14 C         140.0274  140.1612  167.7256 C.ar    1  UNL1        0.1385
     15 C         141.4189  140.3440  168.2546 C.ar    1  UNL1        0.0414
     16 N         143.6569  139.5478  171.1486 N.am    1  UNL1       -0.3253
     17 C         143.0475  140.5943  170.2634 C.2     1  UNL1        0.2428
     18 O         143.8299  141.8237  169.9073 O.2     1  UNL1       -0.2704
     19 H         144.5702  139.6678  171.4959 H       1  UNL1        0.1453
     20 H         143.1434  138.7410  171.3823 H       1  UNL1        0.1453
     21 C         139.4618  141.2540  165.5937 C.3     1  UNL1        0.1006
     22 C         139.8133  140.0040  164.8427 C.ar    1  UNL1        0.0130
     23 C         138.8320  138.8720  164.7695 C.ar    1  UNL1        0.0002
     24 C         139.1835  137.6221  164.0186 C.ar    1  UNL1        0.0204
     25 C         140.5164  137.5041  163.3408 C.ar    1  UNL1        0.0989
     26 N         141.4979  138.6361  163.4140 N.ar    1  UNL1       -0.2426
     27 C         141.1462  139.8861  164.1650 C.ar    1  UNL1        0.0959
@<TRIPOS>BOND
     1    16    17   am
     2    17    18    2
     3    17    10    1
     4    10    11   ar
     5    11    12   ar
     6    12    13   ar
     7    13    14   ar
     8    14     9    1
     9     1     9    1
    10     1     2    1
    11     3     2    1
    12     3     4    1
    13     4     5    1
    14     6     5    1
    15     6     7    1
    16     6     8    1
    17     8    21    1
    18    21    22    1
    19    22    23   ar
    20    23    24   ar
    21    24    25   ar
    22    25    26   ar
    23    26    27   ar
    24    14    15   ar
    25    15    10   ar
    26     7     1    1
    27    27    22   ar
    28     8     3    1
    29    16    19    1
    30    16    20    1
@<TRIPOS>MOLECULE
*****
 27 30 0 0 0
SMALL
GASTEIGER

@<TRIPOS>ATOM
      1 C         142.3926  141.5508  165.8646 C.3     1  UNL1        0.1686
      2 C         143.3435  142.5749  165.3197 C.3     1  UNL1        0.0595
      3 C         144.5634  142.1384  164.5638 C.3     1  UNL1        0.0614
      4 C         145.6019  141.2801  163.9044 C.3     1  UNL1        0.0175
      5 C         145.2081  139.8456  164.0972 C.3     1  UNL1        0.0175
      6 C         143.9262  139.8173  164.8756 C.3     1  UNL1        0.0614
      7 C         142.6615  140.0902  165.6535 C.3     1  UNL1        0.0595
      8 N         143.5278  141.2344  165.1641 N.3     1  UNL1       -0.2713
      9 O         141.1726  141.9872  166.6206 O.3     1  UNL1       -0.4791
     10 C         138.3088  142.8722  164.0196 C.ar    1  UNL1        0.0561
     11 C         137.8967  144.2310  164.5032 C.ar    1  UNL1        0.0047
     12 C         138.5766  144.8418  165.6925 C.ar    1  UNL1        0.0033
     13 C         139.6685  144.0939  166.3983 C.ar    1  UNL1        0.0369
     14 C         140.0806  142.7351  165.9147 C.ar    1  UNL1        0.1385
     15 C         139.4008  142.1243  164.7254 C.ar    1  UNL1        0.0414
     16 N         136.9377  140.9364  162.9600 N.am    1  UNL1       -0.3253
     17 C         137.6289  142.2614  162.8303 C.2     1  UNL1        0.2428
     18 O         137.6402  142.9754  161.5111 O.2     1  UNL1       -0.2704
     19 H         136.4914  140.5355  162.1793 H       1  UNL1        0.1453
     20 H         136.9302  140.4678  163.8257 H       1  UNL1        0.1453
     21 C         142.3079  141.6709  165.9200 C.3     1  UNL1        0.1006
     22 C         142.2257  141.4525  167.4017 C.ar    1  UNL1        0.0130
     23 C         143.0145  142.3243  168.3332 C.ar    1  UNL1        0.0002
     24 C         142.9323  142.1059  169.8149 C.ar    1  UNL1        0.0204
     25 C         142.0613  141.0157  170.3651 C.ar    1  UNL1        0.0989
     26 N         141.2724  140.1438  169.4336 N.ar    1  UNL1       -0.2426
     27 C         141.3547  140.3623  167.9519 C.ar    1  UNL1        0.0959
@<TRIPOS>BOND
     1    16    17   am
     2    17    18    2
     3    17    10    1
     4    10    11   ar
     5    11    12   ar
     6    12    13   ar
     7    13    14   ar
     8    14     9    1
     9     1     9    1
    10     1     2    1
    11     3     2    1
    12     3     4    1
    13     4     5    1
    14     6     5    1
    15     6     7    1
    16     6     8    1
    17     8    21    1
    18    21    22    1
    19    22    23   ar
    20    23    24   ar
    21    24    25   ar
    22    25    26   ar
    23    26    27   ar
    24    14    15   ar
    25    15    10   ar
    26     7     1    1
    27    27    22   ar
    28     8     3    1
    29    16    19    1
    30    16    20    1
@<TRIPOS>MOLECULE
*****
 27 30 0 0 0
SMALL
GASTEIGER

@<TRIPOS>ATOM
      1 C         140.8389  142.5808  164.9038 C.3     1  UNL1        0.1686
      2 C         140.0446  143.7814  165.3253 C.3     1  UNL1        0.0595
      3 C         138.6801  144.0179  164.7491 C.3     1  UNL1        0.0614
      4 C         137.4222  143.8567  163.9480 C.3     1  UNL1        0.0175
      5 C         137.5516  142.6069  163.1287 C.3     1  UNL1        0.0175
      6 C         138.8893  141.9957  163.4234 C.3     1  UNL1        0.0614
      7 C         140.2686  141.6167  163.9061 C.3     1  UNL1        0.0595
      8 N         139.5868  142.8678  164.4249 N.3     1  UNL1       -0.2713
      9 O         142.2036  142.3442  165.4800 O.3     1  UNL1       -0.4791
     10 C         142.4417  141.6827  169.3858 C.ar    1  UNL1        0.0561
     11 C         142.6453  140.1968  169.4097 C.ar    1  UNL1        0.0047
     12 C         142.7017  139.4267  168.1237 C.ar    1  UNL1        0.0033
     13 C         142.5544  140.1425  166.8139 C.ar    1  UNL1        0.0369
     14 C         142.3508  141.6284  166.7899 C.ar    1  UNL1        0.1385
     15 C         142.2944  142.3985  168.0759 C.ar    1  UNL1        0.0414
     16 N         143.3245  143.5996  170.9010 N.am    1  UNL1       -0.3253
     17 C         142.3853  142.4527  170.6718 C.2     1  UNL1        0.2428
     18 O         141.3896  142.0759  171.7286 O.2     1  UNL1       -0.2704
     19 H         143.2875  144.1050  171.7451 H       1  UNL1        0.1453
     20 H         143.9779  143.8470  170.2075 H       1  UNL1        0.1453
     21 C         140.9514  142.6313  165.0011 C.3     1  UNL1        0.1006
     22 C         142.1725  142.9031  164.1734 C.ar    1  UNL1        0.0130
     23 C         142.7300  144.2933  164.0932 C.ar    1  UNL1        0.0002
     24 C         143.9510  144.5650  163.2655 C.ar    1  UNL1        0.0204
     25 C         144.6145  143.4466  162.5180 C.ar    1  UNL1        0.0989
     26 N         144.0570  142.0563  162.5981 N.ar    1  UNL1       -0.2426
     27 C         142.8359  141.7846  163.4259 C.ar    1  UNL1        0.0959
@<TRIPOS>BOND
     1    16    17   am
     2    17    18    2
     3    17    10    1
     4    10    11   ar
     5    11    12   ar
     6    12    13   ar
     7    13    14   ar
     8    14     9    1
     9     1     9    1
    10     1     2    1
    11     3     2    1
    12     3     4    1
    13     4     5    1
    14     6     5    1
    15     6     7    1
    16     6     8    1
    17     8    21    1
    18    21    22    1
    19    22    23   ar
    20    23    24   ar
    21    24    25   ar
    22    25    26   ar
    23    26    27   ar
    24    14    15   ar
    25    15    10   ar
    26     7     1    1
    27    27    22   ar
    28     8     3    1
    29    16    19    1
    30    16    20    1
