@<TRIPOS>MOLECULE
*****
 27 29 0 0 0
SMALL
GASTEIGER

@<TRIPOS>ATOM
      1 C         138.7573  138.7802  165.7717 C.ar    1  UNL1        0.2327
      2 N         139.5374  137.8055  164.9403 N.ar    1  UNL1       -0.2222
      3 C         140.5379  138.3050  163.9405 C.ar    1  UNL1        0.0628
      4 C         140.7583  139.7791  163.7722 C.ar    1  UNL1        0.0339
      5 C         139.9782  140.7538  164.6036 C.ar    1  UNL1        0.0848
      6 N         138.9777  140.2543  165.6034 N.ar    1  UNL1       -0.2178
      7 C         140.1986  142.2280  164.4353 C.ar    1  UNL1        0.0177
      8 C         139.1012  143.1936  164.7718 C.ar    1  UNL1        0.0015
      9 C         139.3216  144.6678  164.6035 C.ar    1  UNL1       -0.0000
     10 C         140.6394  145.1763  164.0988 C.ar    1  UNL1        0.0039
     11 C         141.7368  144.2106  163.7623 C.ar    1  UNL1        0.0715
     12 C         141.5164  142.7365  163.9306 C.ar    1  UNL1        0.0053
     13 C         143.0546  144.7191  163.2576 C.3     1  UNL1        0.4186
     14 F         144.3725  145.2276  162.7528 F       1  UNL1       -0.1659
     15 F         143.6356  144.5790  164.6334 F       1  UNL1       -0.1659
     16 F         142.4736  144.8592  161.8818 F       1  UNL1       -0.1659
     17 N         136.7563  137.7813  167.7713 N.1     1  UNL1       -0.1876
     18 C         137.7568  138.2808  166.7715 C.1     1  UNL1        0.1399
     19 C         141.3181  137.3302  163.1090 C.3     1  UNL1        0.0474
     20 C         141.9857  137.7877  161.8461 C.3     1  UNL1        0.0236
     21 C         143.4730  137.9791  161.8109 C.3     1  UNL1        0.0725
     22 N         144.0778  139.2519  162.3250 N.3     1  UNL1       -0.2727
     23 C         144.5686  139.3309  163.7402 C.3     1  UNL1        0.0721
     24 C         145.1734  140.6037  164.2543 C.3     1  UNL1        0.0174
     25 C         145.2873  141.7974  163.3533 C.3     1  UNL1        0.0029
     26 C         144.7965  141.7184  161.9380 C.3     1  UNL1        0.0174
     27 C         144.1917  140.4457  161.4239 C.3     1  UNL1        0.0721
@<TRIPOS>BOND
     1    17    18    3
     2    18     1    1
     3     1     2   ar
     4     2     3   ar
     5     3    19    1
     6    19    20    1
     7    20    21    1
     8    21    22    1
     9    22    23    1
    10    23    24    1
    11    24    25    1
    12    25    26    1
    13    26    27    1
    14     3     4   ar
    15     4     5   ar
    16     5     7    1
    17     7     8   ar
    18     8     9   ar
    19     9    10   ar
    20    10    11   ar
    21    11    13    1
    22    13    14    1
    23    13    15    1
    24    13    16    1
    25    11    12   ar
    26     5     6   ar
    27     6     1   ar
    28    27    22    1
    29    12     7   ar
@<TRIPOS>MOLECULE
*****
 27 29 0 0 0
SMALL
GASTEIGER

@<TRIPOS>ATOM
      1 C         140.0090  140.9576  168.7414 C.ar    1  UNL1        0.2327
      2 N         139.3689  139.7026  168.2264 N.ar    1  UNL1       -0.2222
      3 C         139.0695  139.5592  166.7636 C.ar    1  UNL1        0.0628
      4 C         139.4101  140.6708  165.8158 C.ar    1  UNL1        0.0339
      5 C         140.0501  141.9258  166.3309 C.ar    1  UNL1        0.0848
      6 N         140.3496  142.0692  167.7937 N.ar    1  UNL1       -0.2178
      7 C         140.3907  143.0375  165.3831 C.ar    1  UNL1        0.0177
      8 C         139.3688  144.0867  165.0595 C.ar    1  UNL1        0.0015
      9 C         139.7094  145.1984  164.1118 C.ar    1  UNL1       -0.0000
     10 C         141.0720  145.2608  163.4876 C.ar    1  UNL1        0.0039
     11 C         142.0939  144.2115  163.8113 C.ar    1  UNL1        0.0715
     12 C         141.7533  143.0999  164.7590 C.ar    1  UNL1        0.0053
     13 C         143.4565  144.2739  163.1871 C.3     1  UNL1        0.4186
     14 F         144.8190  144.3363  162.5630 F       1  UNL1       -0.1659
     15 F         143.1179  143.0906  162.3297 F       1  UNL1       -0.1659
     16 F         143.7950  145.4572  164.0445 F       1  UNL1       -0.1659
     17 N         140.6079  141.2443  171.6670 N.1     1  UNL1       -0.1876
     18 C         140.3085  141.1009  170.2042 C.1     1  UNL1        0.1399
     19 C         138.4294  138.3041  166.2486 C.3     1  UNL1        0.0474
     20 C         138.8625  137.7264  164.9338 C.3     1  UNL1        0.0236
     21 C         140.2575  137.2002  164.7690 C.3     1  UNL1        0.0725
     22 N         141.3893  138.1470  164.4997 N.3     1  UNL1       -0.2727
     23 C         142.4724  138.3309  165.5210 C.3     1  UNL1        0.0721
     24 C         143.6042  139.2777  165.2518 C.3     1  UNL1        0.0174
     25 C         143.6530  140.0406  163.9612 C.3     1  UNL1        0.0029
     26 C         142.5699  139.8568  162.9399 C.3     1  UNL1        0.0174
     27 C         141.4380  138.9100  163.2091 C.3     1  UNL1        0.0721
@<TRIPOS>BOND
     1    17    18    3
     2    18     1    1
     3     1     2   ar
     4     2     3   ar
     5     3    19    1
     6    19    20    1
     7    20    21    1
     8    21    22    1
     9    22    23    1
    10    23    24    1
    11    24    25    1
    12    25    26    1
    13    26    27    1
    14     3     4   ar
    15     4     5   ar
    16     5     7    1
    17     7     8   ar
    18     8     9   ar
    19     9    10   ar
    20    10    11   ar
    21    11    13    1
    22    13    14    1
    23    13    15    1
    24    13    16    1
    25    11    12   ar
    26     5     6   ar
    27     6     1   ar
    28    27    22    1
    29    12     7   ar
@<TRIPOS>MOLECULE
*****
 27 29 0 0 0
SMALL
GASTEIGER

@<TRIPOS>ATOM
      1 C         140.9287  144.3191  163.3757 C.ar    1  UNL1        0.2327
      2 N         142.3956  144.1990  163.0865 N.ar    1  UNL1       -0.2222
      3 C         143.2540  143.2986  163.9246 C.ar    1  UNL1        0.0628
      4 C         142.6455  142.5182  165.0518 C.ar    1  UNL1        0.0339
      5 C         141.1785  142.6382  165.3409 C.ar    1  UNL1        0.0848
      6 N         140.3201  143.5387  164.5029 N.ar    1  UNL1       -0.2178
      7 C         140.5699  141.8578  166.4682 C.ar    1  UNL1        0.0177
      8 C         140.8671  142.2364  167.8888 C.ar    1  UNL1        0.0015
      9 C         140.2585  141.4560  169.0160 C.ar    1  UNL1       -0.0000
     10 C         139.3527  140.2969  168.7225 C.ar    1  UNL1        0.0039
     11 C         139.0556  139.9183  167.3018 C.ar    1  UNL1        0.0715
     12 C         139.6642  140.6987  166.1747 C.ar    1  UNL1        0.0053
     13 C         138.1498  138.7592  167.0083 C.3     1  UNL1        0.4186
     14 F         137.2441  137.6001  166.7148 F       1  UNL1       -0.1659
     15 F         137.5371  138.8930  168.3709 F       1  UNL1       -0.1659
     16 F         138.7626  138.6254  165.6457 F       1  UNL1       -0.1659
     17 N         139.2118  146.1200  161.6996 N.1     1  UNL1       -0.1876
     18 C         140.0702  145.2195  162.5376 C.1     1  UNL1        0.1399
     19 C         144.7210  143.1785  163.6354 C.3     1  UNL1        0.0474
     20 C         145.4060  141.8510  163.7713 C.3     1  UNL1        0.0236
     21 C         144.8813  140.6570  163.0305 C.3     1  UNL1        0.0725
     22 N         143.8900  139.7429  163.6875 N.3     1  UNL1       -0.2727
     23 C         142.6337  139.3554  162.9653 C.3     1  UNL1        0.0721
     24 C         141.6424  138.4413  163.6223 C.3     1  UNL1        0.0174
     25 C         141.9074  137.9146  165.0016 C.3     1  UNL1        0.0029
     26 C         143.1637  138.3021  165.7239 C.3     1  UNL1        0.0174
     27 C         144.1550  139.2162  165.0668 C.3     1  UNL1        0.0721
@<TRIPOS>BOND
     1    17    18    3
     2    18     1    1
     3     1     2   ar
     4     2     3   ar
     5     3    19    1
     6    19    20    1
     7    20    21    1
     8    21    22    1
     9    22    23    1
    10    23    24    1
    11    24    25    1
    12    25    26    1
    13    26    27    1
    14     3     4   ar
    15     4     5   ar
    16     5     7    1
    17     7     8   ar
    18     8     9   ar
    19     9    10   ar
    20    10    11   ar
    21    11    13    1
    22    13    14    1
    23    13    15    1
    24    13    16    1
    25    11    12   ar
    26     5     6   ar
    27     6     1   ar
    28    27    22    1
    29    12     7   ar
@<TRIPOS>MOLECULE
*****
 27 29 0 0 0
SMALL
GASTEIGER

@<TRIPOS>ATOM
      1 C         140.7353  144.2464  162.9806 C.ar    1  UNL1        0.2327
      2 N         142.2284  144.1663  162.8615 N.ar    1  UNL1       -0.2222
      3 C         142.9859  143.1166  163.6194 C.ar    1  UNL1        0.0628
      4 C         142.2504  142.1471  164.4962 C.ar    1  UNL1        0.0339
      5 C         140.7573  142.2272  164.6153 C.ar    1  UNL1        0.0848
      6 N         139.9997  143.2769  163.8574 N.ar    1  UNL1       -0.2178
      7 C         140.0217  141.2577  165.4922 C.ar    1  UNL1        0.0177
      8 C         138.9191  140.4167  164.9204 C.ar    1  UNL1        0.0015
      9 C         138.1835  139.4471  165.7973 C.ar    1  UNL1       -0.0000
     10 C         138.5505  139.3186  167.2460 C.ar    1  UNL1        0.0039
     11 C         139.6531  140.1597  167.8178 C.ar    1  UNL1        0.0715
     12 C         140.3887  141.1292  166.9409 C.ar    1  UNL1        0.0053
     13 C         140.0201  140.0312  169.2665 C.3     1  UNL1        0.4186
     14 F         140.3871  139.9027  170.7153 F       1  UNL1       -0.1659
     15 F         138.6670  140.5489  169.6552 F       1  UNL1       -0.1659
     16 F         141.3732  139.5135  168.8778 F       1  UNL1       -0.1659
     17 N         139.2202  146.3458  161.4649 N.1     1  UNL1       -0.1876
     18 C         139.9777  145.2961  162.2227 C.1     1  UNL1        0.1399
     19 C         144.4791  143.0365  163.5003 C.3     1  UNL1        0.0474
     20 C         145.2230  141.9036  164.1431 C.3     1  UNL1        0.0236
     21 C         145.1427  140.5253  163.5569 C.3     1  UNL1        0.0725
     22 N         144.0258  139.6057  163.9530 N.3     1  UNL1       -0.2727
     23 C         143.1118  139.0415  162.9060 C.3     1  UNL1        0.0721
     24 C         141.9949  138.1219  163.3022 C.3     1  UNL1        0.0174
     25 C         141.7921  137.7665  164.7452 C.3     1  UNL1        0.0029
     26 C         142.7062  138.3306  165.7923 C.3     1  UNL1        0.0174
     27 C         143.8230  139.2502  165.3961 C.3     1  UNL1        0.0721
@<TRIPOS>BOND
     1    17    18    3
     2    18     1    1
     3     1     2   ar
     4     2     3   ar
     5     3    19    1
     6    19    20    1
     7    20    21    1
     8    21    22    1
     9    22    23    1
    10    23    24    1
    11    24    25    1
    12    25    26    1
    13    26    27    1
    14     3     4   ar
    15     4     5   ar
    16     5     7    1
    17     7     8   ar
    18     8     9   ar
    19     9    10   ar
    20    10    11   ar
    21    11    13    1
    22    13    14    1
    23    13    15    1
    24    13    16    1
    25    11    12   ar
    26     5     6   ar
    27     6     1   ar
    28    27    22    1
    29    12     7   ar
@<TRIPOS>MOLECULE
*****
 27 29 0 0 0
SMALL
GASTEIGER

@<TRIPOS>ATOM
      1 C         139.8519  143.6730  162.8679 C.ar    1  UNL1        0.2327
      2 N         139.5276  142.3555  162.2284 N.ar    1  UNL1       -0.2222
      3 C         139.7722  141.0784  162.9763 C.ar    1  UNL1        0.0628
      4 C         140.3410  141.1189  164.3636 C.ar    1  UNL1        0.0339
      5 C         140.6653  142.4364  165.0031 C.ar    1  UNL1        0.0848
      6 N         140.4207  143.7134  164.2553 N.ar    1  UNL1       -0.2178
      7 C         141.2341  142.4769  166.3905 C.ar    1  UNL1        0.0177
      8 C         142.6879  142.1827  166.6139 C.ar    1  UNL1        0.0015
      9 C         143.2568  142.2232  168.0014 C.ar    1  UNL1       -0.0000
     10 C         142.3718  142.5579  169.1653 C.ar    1  UNL1        0.0039
     11 C         140.9179  142.8520  168.9418 C.ar    1  UNL1        0.0715
     12 C         140.3491  142.8115  167.5545 C.ar    1  UNL1        0.0053
     13 C         140.0329  143.1867  170.1058 C.3     1  UNL1        0.4186
     14 F         139.1479  143.5213  171.2697 F       1  UNL1       -0.1659
     15 F         140.5364  144.5994  170.0824 F       1  UNL1       -0.1659
     16 F         139.5294  141.7739  170.1291 F       1  UNL1       -0.1659
     17 N         139.3627  146.2271  161.3722 N.1     1  UNL1       -0.1876
     18 C         139.6073  144.9500  162.1201 C.1     1  UNL1        0.1399
     19 C         139.4480  139.7608  162.3367 C.3     1  UNL1        0.0474
     20 C         139.5321  138.4966  163.1396 C.3     1  UNL1        0.0236
     21 C         140.7756  137.6592  163.0918 C.3     1  UNL1        0.0725
     22 N         142.0481  138.1706  163.6995 N.3     1  UNL1       -0.2727
     23 C         143.1043  138.7803  162.8262 C.3     1  UNL1        0.0721
     24 C         144.3767  139.2917  163.4339 C.3     1  UNL1        0.0174
     25 C         144.5930  139.1935  164.9149 C.3     1  UNL1        0.0029
     26 C         143.5367  138.5839  165.7884 C.3     1  UNL1        0.0174
     27 C         142.2643  138.0724  165.1807 C.3     1  UNL1        0.0721
@<TRIPOS>BOND
     1    17    18    3
     2    18     1    1
     3     1     2   ar
     4     2     3   ar
     5     3    19    1
     6    19    20    1
     7    20    21    1
     8    21    22    1
     9    22    23    1
    10    23    24    1
    11    24    25    1
    12    25    26    1
    13    26    27    1
    14     3     4   ar
    15     4     5   ar
    16     5     7    1
    17     7     8   ar
    18     8     9   ar
    19     9    10   ar
    20    10    11   ar
    21    11    13    1
    22    13    14    1
    23    13    15    1
    24    13    16    1
    25    11    12   ar
    26     5     6   ar
    27     6     1   ar
    28    27    22    1
    29    12     7   ar
@<TRIPOS>MOLECULE
*****
 27 29 0 0 0
SMALL
GASTEIGER

@<TRIPOS>ATOM
      1 C         140.5793  141.2837  169.3293 C.ar    1  UNL1        0.2327
      2 N         139.4718  140.3894  168.8565 N.ar    1  UNL1       -0.2222
      3 C         139.4551  139.9020  167.4380 C.ar    1  UNL1        0.0628
      4 C         140.5459  140.3089  166.4923 C.ar    1  UNL1        0.0339
      5 C         141.6534  141.2032  166.9650 C.ar    1  UNL1        0.0848
      6 N         141.6701  141.6907  168.3835 N.ar    1  UNL1       -0.2178
      7 C         142.7443  141.6102  166.0193 C.ar    1  UNL1        0.0177
      8 C         143.5595  142.8381  166.2983 C.ar    1  UNL1        0.0015
      9 C         144.6503  143.2450  165.3526 C.ar    1  UNL1       -0.0000
     10 C         144.9260  142.4241  164.1277 C.ar    1  UNL1        0.0039
     11 C         144.1108  141.1963  163.8487 C.ar    1  UNL1        0.0715
     12 C         143.0199  140.7893  164.7945 C.ar    1  UNL1        0.0053
     13 C         144.3864  140.3754  162.6239 C.3     1  UNL1        0.4186
     14 F         144.6621  139.5545  161.3991 F       1  UNL1       -0.1659
     15 F         143.8784  141.4922  161.7610 F       1  UNL1       -0.1659
     16 F         144.8944  139.2585  163.4868 F       1  UNL1       -0.1659
     17 N         140.6127  142.2585  172.1663 N.1     1  UNL1       -0.1876
     18 C         140.5960  141.7711  170.7478 C.1     1  UNL1        0.1399
     19 C         138.3475  139.0076  166.9653 C.3     1  UNL1        0.0474
     20 C         138.2040  138.6996  165.5043 C.3     1  UNL1        0.0236
     21 C         138.9260  137.5265  164.9106 C.3     1  UNL1        0.0725
     22 N         139.7499  137.7026  163.6695 N.3     1  UNL1       -0.2727
     23 C         139.0841  138.0444  162.3696 C.3     1  UNL1        0.0721
     24 C         139.9079  138.2205  161.1285 C.3     1  UNL1        0.0174
     25 C         141.3976  138.0548  161.1874 C.3     1  UNL1        0.0029
     26 C         142.0634  137.7129  162.4873 C.3     1  UNL1        0.0174
     27 C         141.2396  137.5368  163.7284 C.3     1  UNL1        0.0721
@<TRIPOS>BOND
     1    17    18    3
     2    18     1    1
     3     1     2   ar
     4     2     3   ar
     5     3    19    1
     6    19    20    1
     7    20    21    1
     8    21    22    1
     9    22    23    1
    10    23    24    1
    11    24    25    1
    12    25    26    1
    13    26    27    1
    14     3     4   ar
    15     4     5   ar
    16     5     7    1
    17     7     8   ar
    18     8     9   ar
    19     9    10   ar
    20    10    11   ar
    21    11    13    1
    22    13    14    1
    23    13    15    1
    24    13    16    1
    25    11    12   ar
    26     5     6   ar
    27     6     1   ar
    28    27    22    1
    29    12     7   ar
@<TRIPOS>MOLECULE
*****
 27 29 0 0 0
SMALL
GASTEIGER

@<TRIPOS>ATOM
      1 C         140.3938  140.7657  169.0072 C.ar    1  UNL1        0.2327
      2 N         139.4764  139.7720  168.3584 N.ar    1  UNL1       -0.2222
      3 C         139.3896  139.6965  166.8629 C.ar    1  UNL1        0.0628
      4 C         140.2203  140.6146  166.0161 C.ar    1  UNL1        0.0339
      5 C         141.1376  141.6083  166.6649 C.ar    1  UNL1        0.0848
      6 N         141.2244  141.6838  168.1605 N.ar    1  UNL1       -0.2178
      7 C         141.9683  142.5265  165.8181 C.ar    1  UNL1        0.0177
      8 C         143.4431  142.6449  166.0648 C.ar    1  UNL1        0.0015
      9 C         144.2738  143.5631  165.2180 C.ar    1  UNL1       -0.0000
     10 C         143.6296  144.3628  164.1246 C.ar    1  UNL1        0.0039
     11 C         142.1547  144.2443  163.8780 C.ar    1  UNL1        0.0715
     12 C         141.3241  143.3261  164.7247 C.ar    1  UNL1        0.0053
     13 C         141.5105  145.0440  162.7845 C.3     1  UNL1        0.4186
     14 F         140.8663  145.8437  161.6911 F       1  UNL1       -0.1659
     15 F         142.6630  144.7313  161.8768 F       1  UNL1       -0.1659
     16 F         140.3580  145.3567  163.6923 F       1  UNL1       -0.1659
     17 N         140.5673  140.9168  171.9984 N.1     1  UNL1       -0.1876
     18 C         140.4805  140.8412  170.5028 C.1     1  UNL1        0.1399
     19 C         138.4722  138.7028  166.2141 C.3     1  UNL1        0.0474
     20 C         138.9889  137.7983  165.1347 C.3     1  UNL1        0.0236
     21 C         138.6299  138.0593  163.7019 C.3     1  UNL1        0.0725
     22 N         138.8537  139.4184  163.1081 N.3     1  UNL1       -0.2727
     23 C         137.7634  140.4474  163.1580 C.3     1  UNL1        0.0721
     24 C         137.9873  141.8066  162.5642 C.3     1  UNL1        0.0174
     25 C         139.3013  142.1368  161.9206 C.3     1  UNL1        0.0029
     26 C         140.3916  141.1078  161.8708 C.3     1  UNL1        0.0174
     27 C         140.1678  139.7486  162.4646 C.3     1  UNL1        0.0721
@<TRIPOS>BOND
     1    17    18    3
     2    18     1    1
     3     1     2   ar
     4     2     3   ar
     5     3    19    1
     6    19    20    1
     7    20    21    1
     8    21    22    1
     9    22    23    1
    10    23    24    1
    11    24    25    1
    12    25    26    1
    13    26    27    1
    14     3     4   ar
    15     4     5   ar
    16     5     7    1
    17     7     8   ar
    18     8     9   ar
    19     9    10   ar
    20    10    11   ar
    21    11    13    1
    22    13    14    1
    23    13    15    1
    24    13    16    1
    25    11    12   ar
    26     5     6   ar
    27     6     1   ar
    28    27    22    1
    29    12     7   ar
@<TRIPOS>MOLECULE
*****
 27 29 0 0 0
SMALL
GASTEIGER

@<TRIPOS>ATOM
      1 C         143.1619  141.8889  163.7665 C.ar    1  UNL1        0.2327
      2 N         142.9317  140.6531  162.9481 N.ar    1  UNL1       -0.2222
      3 C         142.4219  139.4038  163.6034 C.ar    1  UNL1        0.0628
      4 C         142.1423  139.3903  165.0770 C.ar    1  UNL1        0.0339
      5 C         142.3724  140.6261  165.8954 C.ar    1  UNL1        0.0848
      6 N         142.8822  141.8754  165.2401 N.ar    1  UNL1       -0.2178
      7 C         142.0928  140.6126  167.3691 C.ar    1  UNL1        0.0177
      8 C         142.5656  139.4653  168.2117 C.ar    1  UNL1        0.0015
      9 C         142.2859  139.4519  169.6854 C.ar    1  UNL1       -0.0000
     10 C         141.5335  140.5858  170.3164 C.ar    1  UNL1        0.0039
     11 C         141.0608  141.7332  169.4736 C.ar    1  UNL1        0.0715
     12 C         141.3404  141.7466  168.0000 C.ar    1  UNL1        0.0053
     13 C         140.3084  142.8671  170.1046 C.3     1  UNL1        0.4186
     14 F         139.5559  144.0010  170.7356 F       1  UNL1       -0.1659
     15 F         141.4981  143.7611  169.9168 F       1  UNL1       -0.1659
     16 F         139.1186  141.9731  170.2925 F       1  UNL1       -0.1659
     17 N         144.1814  144.3875  162.4560 N.1     1  UNL1       -0.1876
     18 C         143.6716  143.1382  163.1112 C.1     1  UNL1        0.1399
     19 C         142.1918  138.1679  162.7850 C.3     1  UNL1        0.0474
     20 C         141.1200  138.1522  161.7356 C.3     1  UNL1        0.0236
     21 C         139.6910  137.9176  162.1265 C.3     1  UNL1        0.0725
     22 N         139.1677  138.4664  163.4206 N.3     1  UNL1       -0.2727
     23 C         138.7936  139.9153  163.5242 C.3     1  UNL1        0.0721
     24 C         138.2703  140.4642  164.8183 C.3     1  UNL1        0.0174
     25 C         138.1209  139.5642  166.0089 C.3     1  UNL1        0.0029
     26 C         138.4950  138.1152  165.9054 C.3     1  UNL1        0.0174
     27 C         139.0183  137.5663  164.6113 C.3     1  UNL1        0.0721
@<TRIPOS>BOND
     1    17    18    3
     2    18     1    1
     3     1     2   ar
     4     2     3   ar
     5     3    19    1
     6    19    20    1
     7    20    21    1
     8    21    22    1
     9    22    23    1
    10    23    24    1
    11    24    25    1
    12    25    26    1
    13    26    27    1
    14     3     4   ar
    15     4     5   ar
    16     5     7    1
    17     7     8   ar
    18     8     9   ar
    19     9    10   ar
    20    10    11   ar
    21    11    13    1
    22    13    14    1
    23    13    15    1
    24    13    16    1
    25    11    12   ar
    26     5     6   ar
    27     6     1   ar
    28    27    22    1
    29    12     7   ar
@<TRIPOS>MOLECULE
*****
 27 29 0 0 0
SMALL
GASTEIGER

@<TRIPOS>ATOM
      1 C         142.6347  142.5069  162.7968 C.ar    1  UNL1        0.2327
      2 N         141.2533  143.0069  162.4939 N.ar    1  UNL1       -0.2222
      3 C         140.2028  143.0032  163.5645 C.ar    1  UNL1        0.0628
      4 C         140.5336  142.4995  164.9381 C.ar    1  UNL1        0.0339
      5 C         141.9149  141.9994  165.2410 C.ar    1  UNL1        0.0848
      6 N         142.9655  142.0031  164.1704 N.ar    1  UNL1       -0.2178
      7 C         142.2458  141.4956  166.6147 C.ar    1  UNL1        0.0177
      8 C         142.1988  140.0248  166.9056 C.ar    1  UNL1        0.0015
      9 C         142.5296  139.5210  168.2792 C.ar    1  UNL1       -0.0000
     10 C         142.9074  140.4880  169.3619 C.ar    1  UNL1        0.0039
     11 C         142.9544  141.9589  169.0709 C.ar    1  UNL1        0.0715
     12 C         142.6235  142.4626  167.6973 C.ar    1  UNL1        0.0053
     13 C         143.3322  142.9259  170.1536 C.3     1  UNL1        0.4186
     14 F         143.7100  143.8929  171.2362 F       1  UNL1       -0.1659
     15 F         144.7595  142.4745  170.0587 F       1  UNL1       -0.1659
     16 F         141.9049  143.3772  170.2485 F       1  UNL1       -0.1659
     17 N         144.7358  142.5143  160.6555 N.1     1  UNL1       -0.1876
     18 C         143.6852  142.5106  161.7261 C.1     1  UNL1        0.1399
     19 C         138.8214  143.5033  163.2616 C.3     1  UNL1        0.0474
     20 C         137.6298  142.6428  163.5610 C.3     1  UNL1        0.0236
     21 C         137.5091  141.2849  162.9354 C.3     1  UNL1        0.0725
     22 N         138.0230  140.0766  163.6606 N.3     1  UNL1       -0.2727
     23 C         138.1008  140.0777  165.1586 C.3     1  UNL1        0.0721
     24 C         138.6146  138.8694  165.8838 C.3     1  UNL1        0.0174
     25 C         139.0507  137.6600  165.1111 C.3     1  UNL1        0.0029
     26 C         138.9729  137.6589  163.6130 C.3     1  UNL1        0.0174
     27 C         138.4590  138.8672  162.8878 C.3     1  UNL1        0.0721
@<TRIPOS>BOND
     1    17    18    3
     2    18     1    1
     3     1     2   ar
     4     2     3   ar
     5     3    19    1
     6    19    20    1
     7    20    21    1
     8    21    22    1
     9    22    23    1
    10    23    24    1
    11    24    25    1
    12    25    26    1
    13    26    27    1
    14     3     4   ar
    15     4     5   ar
    16     5     7    1
    17     7     8   ar
    18     8     9   ar
    19     9    10   ar
    20    10    11   ar
    21    11    13    1
    22    13    14    1
    23    13    15    1
    24    13    16    1
    25    11    12   ar
    26     5     6   ar
    27     6     1   ar
    28    27    22    1
    29    12     7   ar
