@<TRIPOS>MOLECULE
*****
 29 33 0 0 0
SMALL
GASTEIGER

@<TRIPOS>ATOM
      1 C         139.8975  145.4990  157.2928 C.ar    1  UNL1        0.0821
      2 C         140.4372  145.7991  158.6598 C.ar    1  UNL1        0.0272
      3 C         140.5173  144.7117  159.6898 C.ar    1  UNL1        0.0528
      4 S         140.9997  144.7082  161.1102 S.2     1  UNL1       -0.0514
      5 C         140.8383  143.3185  161.6511 C.ar    1  UNL1        0.1631
      6 N         140.2562  142.4631  160.5651 N.ar    1  UNL1       -0.2225
      7 C         140.0578  143.3242  159.3530 C.ar    1  UNL1        0.1084
      8 C         139.5181  143.0240  157.9860 C.ar    1  UNL1        0.1184
      9 N         139.4380  144.1114  156.9560 N.ar    1  UNL1       -0.2422
     10 C         138.8984  148.8904  155.4899 C.ar    1  UNL1        0.2250
     11 C         138.9786  147.8030  156.5201 C.ar    1  UNL1        0.0592
     12 C         139.8173  146.5864  156.2627 C.ar    1  UNL1        0.0239
     13 C         140.5759  146.4571  154.9751 C.ar    1  UNL1        0.0224
     14 C         140.4958  147.5444  153.9450 C.ar    1  UNL1        0.1021
     15 N         139.6570  148.7611  154.2024 N.ar    1  UNL1       -0.2101
     16 C         138.5384  151.4564  155.3001 C.3     1  UNL1        0.2542
     17 O         138.0596  150.1070  155.7474 O.3     1  UNL1       -0.4561
     18 N         141.1962  142.8640  163.0351 N.pl3   1  UNL1       -0.2881
     19 C         142.4564  142.0840  163.2659 C.3     1  UNL1        0.0940
     20 C         142.8143  141.6295  164.6499 C.3     1  UNL1        0.0375
     21 C         141.9120  141.9550  165.8030 C.3     1  UNL1        0.0609
     22 C         140.6517  142.7350  165.5722 C.3     1  UNL1        0.0375
     23 C         140.2938  143.1895  164.1882 C.3     1  UNL1        0.0940
     24 N         142.2698  141.5005  167.1870 N.3     1  UNL1       -0.2738
     25 C         141.8232  140.1535  167.6730 C.3     1  UNL1        0.0720
     26 C         142.1811  139.6990  169.0569 C.3     1  UNL1        0.0174
     27 C         142.9856  140.5914  169.9549 C.3     1  UNL1        0.0029
     28 C         143.4322  141.9384  169.4689 C.3     1  UNL1        0.0174
     29 C         143.0743  142.3929  168.0849 C.3     1  UNL1        0.0720
@<TRIPOS>BOND
     1    16    17    1
     2    17    10    1
     3    10    11   ar
     4    11    12   ar
     5    12     1    1
     6     1     2   ar
     7     2     3   ar
     8     3     4   ar
     9     4     5   ar
    10     5    18    1
    11    18    19    1
    12    19    20    1
    13    20    21    1
    14    21    24    1
    15    24    25    1
    16    25    26    1
    17    26    27    1
    18    27    28    1
    19    28    29    1
    20    21    22    1
    21    22    23    1
    22     5     6   ar
    23     6     7   ar
    24     7     8   ar
    25     8     9   ar
    26    12    13   ar
    27    13    14   ar
    28    14    15   ar
    29    15    10   ar
    30     9     1   ar
    31     7     3   ar
    32    23    18    1
    33    29    24    1
@<TRIPOS>MOLECULE
*****
 29 33 0 0 0
SMALL
GASTEIGER

@<TRIPOS>ATOM
      1 C         142.5813  140.1037  167.4981 C.ar    1  UNL1        0.0821
      2 C         142.4466  141.0688  166.3578 C.ar    1  UNL1        0.0272
      3 C         143.0131  140.7239  165.0124 C.ar    1  UNL1        0.0528
      4 S         143.0336  141.4693  163.7109 S.2     1  UNL1       -0.0514
      5 C         143.7474  140.6199  162.7014 C.ar    1  UNL1        0.1631
      6 N         144.1681  139.3495  163.3791 N.ar    1  UNL1       -0.2225
      7 C         143.7143  139.4138  164.8074 C.ar    1  UNL1        0.1084
      8 C         143.8489  138.4487  165.9477 C.ar    1  UNL1        0.1184
      9 N         143.2824  138.7936  167.2930 N.ar    1  UNL1       -0.2422
     10 C         140.1860  140.1357  170.6623 C.ar    1  UNL1        0.2250
     11 C         140.7526  139.7908  169.3169 C.ar    1  UNL1        0.0592
     12 C         142.0147  140.4486  168.8435 C.ar    1  UNL1        0.0239
     13 C         142.7105  141.4514  169.7156 C.ar    1  UNL1        0.0224
     14 C         142.1440  141.7963  171.0610 C.ar    1  UNL1        0.1021
     15 N         140.8817  141.1385  171.5344 N.ar    1  UNL1       -0.2101
     16 C         137.6382  139.7024  170.3962 C.3     1  UNL1        0.2542
     17 O         138.9238  139.4779  171.1357 O.3     1  UNL1       -0.4561
     18 N         143.9968  140.9780  161.2663 N.pl3   1  UNL1       -0.2881
     19 C         143.7038  139.9826  160.1831 C.3     1  UNL1        0.0940
     20 C         143.9531  140.3407  158.7480 C.3     1  UNL1        0.0375
     21 C         144.4955  141.6941  158.3960 C.3     1  UNL1        0.0609
     22 C         144.7885  142.6895  159.4792 C.3     1  UNL1        0.0375
     23 C         144.5392  142.3314  160.9144 C.3     1  UNL1        0.0940
     24 N         144.7449  142.0522  156.9609 N.3     1  UNL1       -0.2738
     25 C         143.6082  142.5025  156.0919 C.3     1  UNL1        0.0720
     26 C         143.8576  142.8606  154.6567 C.3     1  UNL1        0.0174
     27 C         145.2436  142.7684  154.0907 C.3     1  UNL1        0.0029
     28 C         146.3802  142.3181  154.9597 C.3     1  UNL1        0.0174
     29 C         146.1308  141.9600  156.3948 C.3     1  UNL1        0.0720
@<TRIPOS>BOND
     1    16    17    1
     2    17    10    1
     3    10    11   ar
     4    11    12   ar
     5    12     1    1
     6     1     2   ar
     7     2     3   ar
     8     3     4   ar
     9     4     5   ar
    10     5    18    1
    11    18    19    1
    12    19    20    1
    13    20    21    1
    14    21    24    1
    15    24    25    1
    16    25    26    1
    17    26    27    1
    18    27    28    1
    19    28    29    1
    20    21    22    1
    21    22    23    1
    22     5     6   ar
    23     6     7   ar
    24     7     8   ar
    25     8     9   ar
    26    12    13   ar
    27    13    14   ar
    28    14    15   ar
    29    15    10   ar
    30     9     1   ar
    31     7     3   ar
    32    23    18    1
    33    29    24    1
@<TRIPOS>MOLECULE
*****
 29 33 0 0 0
SMALL
GASTEIGER

@<TRIPOS>ATOM
      1 C         139.8261  141.2490  166.4233 C.ar    1  UNL1        0.0821
      2 C         140.1236  142.4900  165.6350 C.ar    1  UNL1        0.0272
      3 C         139.9652  142.4868  164.1434 C.ar    1  UNL1        0.0528
      4 S         140.1825  143.5509  163.1088 S.2     1  UNL1       -0.0514
      5 C         139.8609  142.9646  161.7661 C.ar    1  UNL1        0.1631
      6 N         139.4449  141.5381  161.9709 N.ar    1  UNL1       -0.2225
      7 C         139.5094  141.2428  163.4402 C.ar    1  UNL1        0.1084
      8 C         139.2119  140.0018  164.2285 C.ar    1  UNL1        0.1184
      9 N         139.3703  140.0050  165.7201 N.ar    1  UNL1       -0.2422
     10 C         140.9509  142.3290  170.0729 C.ar    1  UNL1        0.2250
     11 C         140.7925  142.3260  168.5812 C.ar    1  UNL1        0.0592
     12 C         139.9845  141.2521  167.9150 C.ar    1  UNL1        0.0239
     13 C         139.3348  140.1813  168.7404 C.ar    1  UNL1        0.0224
     14 C         139.4931  140.1843  170.2320 C.ar    1  UNL1        0.1021
     15 N         140.3012  141.2582  170.8983 N.ar    1  UNL1       -0.2101
     16 C         143.2572  143.3328  170.7235 C.3     1  UNL1        0.2542
     17 O         141.7589  143.4029  170.7391 O.3     1  UNL1       -0.4561
     18 N         139.9412  143.6793  160.4497 N.pl3   1  UNL1       -0.2881
     19 C         140.3764  145.1138  160.4005 C.3     1  UNL1        0.0940
     20 C         140.4567  145.8285  159.0842 C.3     1  UNL1        0.0375
     21 C         140.1018  145.1086  157.8170 C.3     1  UNL1        0.0609
     22 C         139.6666  143.6740  157.8662 C.3     1  UNL1        0.0375
     23 C         139.5863  142.9593  159.1826 C.3     1  UNL1        0.0940
     24 N         140.1821  145.8233  156.5007 N.3     1  UNL1       -0.2738
     25 C         141.0745  145.2981  155.4154 C.3     1  UNL1        0.0720
     26 C         141.1548  146.0128  154.0990 C.3     1  UNL1        0.0174
     27 C         140.3428  147.2526  153.8679 C.3     1  UNL1        0.0029
     28 C         139.4504  147.7777  154.9532 C.3     1  UNL1        0.0174
     29 C         139.3701  147.0630  156.2696 C.3     1  UNL1        0.0720
@<TRIPOS>BOND
     1    16    17    1
     2    17    10    1
     3    10    11   ar
     4    11    12   ar
     5    12     1    1
     6     1     2   ar
     7     2     3   ar
     8     3     4   ar
     9     4     5   ar
    10     5    18    1
    11    18    19    1
    12    19    20    1
    13    20    21    1
    14    21    24    1
    15    24    25    1
    16    25    26    1
    17    26    27    1
    18    27    28    1
    19    28    29    1
    20    21    22    1
    21    22    23    1
    22     5     6   ar
    23     6     7   ar
    24     7     8   ar
    25     8     9   ar
    26    12    13   ar
    27    13    14   ar
    28    14    15   ar
    29    15    10   ar
    30     9     1   ar
    31     7     3   ar
    32    23    18    1
    33    29    24    1
@<TRIPOS>MOLECULE
*****
 29 33 0 0 0
SMALL
GASTEIGER

@<TRIPOS>ATOM
      1 C         140.2785  141.3859  167.0903 C.ar    1  UNL1        0.0821
      2 C         140.8401  142.4264  166.1673 C.ar    1  UNL1        0.0272
      3 C         140.3766  142.4936  164.7423 C.ar    1  UNL1        0.0528
      4 S         140.7473  143.4026  163.6081 S.2     1  UNL1       -0.0514
      5 C         139.9513  142.9911  162.4052 C.ar    1  UNL1        0.1631
      6 N         139.0888  141.8278  162.7959 N.ar    1  UNL1       -0.2225
      7 C         139.3516  141.5203  164.2403 C.ar    1  UNL1        0.1084
      8 C         138.7900  140.4798  165.1633 C.ar    1  UNL1        0.1184
      9 N         139.2535  140.4126  166.5883 N.ar    1  UNL1       -0.2422
     10 C         142.2501  140.2532  170.3431 C.ar    1  UNL1        0.2250
     11 C         141.7866  140.3204  168.9180 C.ar    1  UNL1        0.0592
     12 C         140.7420  141.3186  168.5154 C.ar    1  UNL1        0.0239
     13 C         140.1607  142.2497  169.5378 C.ar    1  UNL1        0.0224
     14 C         140.6241  142.1825  170.9628 C.ar    1  UNL1        0.1021
     15 N         141.6688  141.1842  171.3655 N.ar    1  UNL1       -0.2101
     16 C         143.1260  137.8077  170.3893 C.3     1  UNL1        0.2542
     17 O         143.2947  139.2549  170.7457 O.3     1  UNL1       -0.4561
     18 N         140.0080  143.6307  161.0495 N.pl3   1  UNL1       -0.2881
     19 C         139.5820  142.8572  159.8370 C.3     1  UNL1        0.0940
     20 C         139.6386  143.4968  158.4813 C.3     1  UNL1        0.0375
     21 C         140.1213  144.9097  158.3382 C.3     1  UNL1        0.0609
     22 C         140.5473  145.6832  159.5508 C.3     1  UNL1        0.0375
     23 C         140.4907  145.0436  160.9064 C.3     1  UNL1        0.0940
     24 N         140.1780  145.5493  156.9826 N.3     1  UNL1       -0.2738
     25 C         139.4201  146.8166  156.7189 C.3     1  UNL1        0.0720
     26 C         139.4768  147.4561  155.3633 C.3     1  UNL1        0.0174
     27 C         140.2913  146.8284  154.2713 C.3     1  UNL1        0.0029
     28 C         141.0491  145.5611  154.5350 C.3     1  UNL1        0.0174
     29 C         140.9925  144.9215  155.8906 C.3     1  UNL1        0.0720
@<TRIPOS>BOND
     1    16    17    1
     2    17    10    1
     3    10    11   ar
     4    11    12   ar
     5    12     1    1
     6     1     2   ar
     7     2     3   ar
     8     3     4   ar
     9     4     5   ar
    10     5    18    1
    11    18    19    1
    12    19    20    1
    13    20    21    1
    14    21    24    1
    15    24    25    1
    16    25    26    1
    17    26    27    1
    18    27    28    1
    19    28    29    1
    20    21    22    1
    21    22    23    1
    22     5     6   ar
    23     6     7   ar
    24     7     8   ar
    25     8     9   ar
    26    12    13   ar
    27    13    14   ar
    28    14    15   ar
    29    15    10   ar
    30     9     1   ar
    31     7     3   ar
    32    23    18    1
    33    29    24    1
@<TRIPOS>MOLECULE
*****
 29 33 0 0 0
SMALL
GASTEIGER

@<TRIPOS>ATOM
      1 C         140.2010  140.9604  166.2316 C.ar    1  UNL1        0.0821
      2 C         141.4286  141.4377  165.5138 C.ar    1  UNL1        0.0272
      3 C         141.5856  141.1808  164.0444 C.ar    1  UNL1        0.0528
      4 S         142.6767  141.5286  163.0756 S.2     1  UNL1       -0.0514
      5 C         142.2806  141.0094  161.7252 C.ar    1  UNL1        0.1631
      6 N         140.9447  140.3407  161.8594 N.ar    1  UNL1       -0.2225
      7 C         140.5151  140.4466  163.2927 C.ar    1  UNL1        0.1084
      8 C         139.2876  139.9693  164.0105 C.ar    1  UNL1        0.1184
      9 N         139.1305  140.2263  165.4799 N.ar    1  UNL1       -0.2422
     10 C         139.1868  140.4697  170.0370 C.ar    1  UNL1        0.2250
     11 C         139.3439  140.2128  168.5674 C.ar    1  UNL1        0.0592
     12 C         140.0439  141.2174  167.7011 C.ar    1  UNL1        0.0239
     13 C         140.5869  142.4789  168.3041 C.ar    1  UNL1        0.0224
     14 C         140.4298  142.7359  169.7735 C.ar    1  UNL1        0.1021
     15 N         139.7297  141.7312  170.6400 N.ar    1  UNL1       -0.2101
     16 C         137.0279  139.1836  170.6967 C.3     1  UNL1        0.2542
     17 O         138.4867  139.4651  170.9033 O.3     1  UNL1       -0.4561
     18 N         143.0801  141.1366  160.4624 N.pl3   1  UNL1       -0.2881
     19 C         143.9524  142.3373  160.2447 C.3     1  UNL1        0.0940
     20 C         144.7518  142.4645  158.9819 C.3     1  UNL1        0.0375
     21 C         144.6789  141.3911  157.9367 C.3     1  UNL1        0.0609
     22 C         143.8066  140.1904  158.1544 C.3     1  UNL1        0.0375
     23 C         143.0072  140.0632  159.4173 C.3     1  UNL1        0.0940
     24 N         145.4784  141.5183  156.6739 N.3     1  UNL1       -0.2738
     25 C         146.7084  142.3764  156.6482 C.3     1  UNL1        0.0720
     26 C         147.5078  142.5036  155.3853 C.3     1  UNL1        0.0174
     27 C         147.0772  141.7727  154.1483 C.3     1  UNL1        0.0029
     28 C         145.8472  140.9146  154.1740 C.3     1  UNL1        0.0174
     29 C         145.0478  140.7874  155.4369 C.3     1  UNL1        0.0720
@<TRIPOS>BOND
     1    16    17    1
     2    17    10    1
     3    10    11   ar
     4    11    12   ar
     5    12     1    1
     6     1     2   ar
     7     2     3   ar
     8     3     4   ar
     9     4     5   ar
    10     5    18    1
    11    18    19    1
    12    19    20    1
    13    20    21    1
    14    21    24    1
    15    24    25    1
    16    25    26    1
    17    26    27    1
    18    27    28    1
    19    28    29    1
    20    21    22    1
    21    22    23    1
    22     5     6   ar
    23     6     7   ar
    24     7     8   ar
    25     8     9   ar
    26    12    13   ar
    27    13    14   ar
    28    14    15   ar
    29    15    10   ar
    30     9     1   ar
    31     7     3   ar
    32    23    18    1
    33    29    24    1
@<TRIPOS>MOLECULE
*****
 29 33 0 0 0
SMALL
GASTEIGER

@<TRIPOS>ATOM
      1 C         142.9913  137.1861  157.5818 C.ar    1  UNL1        0.0821
      2 C         142.6759  137.0085  159.0374 C.ar    1  UNL1        0.0272
      3 C         142.6959  138.1918  159.9590 C.ar    1  UNL1        0.0528
      4 S         142.4300  138.3235  161.4294 S.2     1  UNL1       -0.0514
      5 C         142.6010  139.7658  161.8040 C.ar    1  UNL1        0.1631
      6 N         142.9725  140.5256  160.5652 N.ar    1  UNL1       -0.2225
      7 C         143.0311  139.5528  159.4249 C.ar    1  UNL1        0.1084
      8 C         143.3465  139.7305  157.9693 C.ar    1  UNL1        0.1184
      9 N         143.3265  138.5471  157.0477 N.ar    1  UNL1       -0.2422
     10 C         143.3368  133.4633  156.2507 C.ar    1  UNL1        0.2250
     11 C         143.3567  134.6467  157.1724 C.ar    1  UNL1        0.0592
     12 C         142.9713  136.0028  156.6602 C.ar    1  UNL1        0.0239
     13 C         142.5660  136.1756  155.2264 C.ar    1  UNL1        0.0224
     14 C         142.5460  134.9923  154.3047 C.ar    1  UNL1        0.1021
     15 N         142.9314  133.6361  154.8169 N.ar    1  UNL1       -0.2101
     16 C         144.9475  131.9470  157.6132 C.3     1  UNL1        0.2542
     17 O         143.7222  132.1072  156.7629 O.3     1  UNL1       -0.4561
     18 N         142.4305  140.3464  163.1766 N.pl3   1  UNL1       -0.2881
     19 C         143.1492  139.7368  164.3434 C.3     1  UNL1        0.0940
     20 C         142.9787  140.3174  165.7160 C.3     1  UNL1        0.0375
     21 C         142.0894  141.5077  165.9216 C.3     1  UNL1        0.0609
     22 C         141.3706  142.1173  164.7547 C.3     1  UNL1        0.0375
     23 C         141.5412  141.5367  163.3822 C.3     1  UNL1        0.0940
     24 N         141.9188  142.0883  167.2941 N.3     1  UNL1       -0.2738
     25 C         143.0604  142.0621  168.2667 C.3     1  UNL1        0.0720
     26 C         142.8898  142.6427  169.6392 C.3     1  UNL1        0.0174
     27 C         141.5777  143.2496  170.0391 C.3     1  UNL1        0.0029
     28 C         140.4361  143.2758  169.0665 C.3     1  UNL1        0.0174
     29 C         140.6067  142.6952  167.6940 C.3     1  UNL1        0.0720
@<TRIPOS>BOND
     1    16    17    1
     2    17    10    1
     3    10    11   ar
     4    11    12   ar
     5    12     1    1
     6     1     2   ar
     7     2     3   ar
     8     3     4   ar
     9     4     5   ar
    10     5    18    1
    11    18    19    1
    12    19    20    1
    13    20    21    1
    14    21    24    1
    15    24    25    1
    16    25    26    1
    17    26    27    1
    18    27    28    1
    19    28    29    1
    20    21    22    1
    21    22    23    1
    22     5     6   ar
    23     6     7   ar
    24     7     8   ar
    25     8     9   ar
    26    12    13   ar
    27    13    14   ar
    28    14    15   ar
    29    15    10   ar
    30     9     1   ar
    31     7     3   ar
    32    23    18    1
    33    29    24    1
@<TRIPOS>MOLECULE
*****
 29 33 0 0 0
SMALL
GASTEIGER

@<TRIPOS>ATOM
      1 C         141.9068  141.5218  167.1878 C.ar    1  UNL1        0.0821
      2 C         141.1882  142.5118  166.3197 C.ar    1  UNL1        0.0272
      3 C         141.5179  142.6071  164.8596 C.ar    1  UNL1        0.0528
      4 S         140.9804  143.4795  163.7641 S.2     1  UNL1       -0.0514
      5 C         141.6965  143.1241  162.4949 C.ar    1  UNL1        0.1631
      6 N         142.6765  142.0319  162.8060 N.ar    1  UNL1       -0.2225
      7 C         142.5662  141.7124  164.2674 C.ar    1  UNL1        0.1084
      8 C         143.2847  140.7224  165.1354 C.ar    1  UNL1        0.1184
      9 N         142.9550  140.6271  166.5956 N.ar    1  UNL1       -0.2422
     10 C         140.1503  140.4190  170.5714 C.ar    1  UNL1        0.2250
     11 C         140.4800  140.5144  169.1112 C.ar    1  UNL1        0.0592
     12 C         141.5771  141.4264  168.6480 C.ar    1  UNL1        0.0239
     13 C         142.3446  142.2430  169.6450 C.ar    1  UNL1        0.0224
     14 C         142.0150  142.1477  171.1052 C.ar    1  UNL1        0.1021
     15 N         140.9178  141.2357  171.5685 N.ar    1  UNL1       -0.2101
     16 C         137.7227  139.5223  170.3420 C.3     1  UNL1        0.2542
     17 O         139.0531  139.5071  171.0346 O.3     1  UNL1       -0.4561
     18 N         141.4720  143.7507  161.1507 N.pl3   1  UNL1       -0.2881
     19 C         140.5292  144.9090  161.0112 C.3     1  UNL1        0.0940
     20 C         140.3046  145.5356  159.6670 C.3     1  UNL1        0.0375
     21 C         141.0229  145.0040  158.4623 C.3     1  UNL1        0.0609
     22 C         141.9658  143.8458  158.6018 C.3     1  UNL1        0.0375
     23 C         142.1903  143.2191  159.9460 C.3     1  UNL1        0.0940
     24 N         140.7984  145.6306  157.1181 N.3     1  UNL1       -0.2738
     25 C         139.6978  146.6326  156.9321 C.3     1  UNL1        0.0720
     26 C         139.4732  147.2592  155.5879 C.3     1  UNL1        0.0174
     27 C         140.3494  146.8839  154.4296 C.3     1  UNL1        0.0029
     28 C         141.4500  145.8820  154.6156 C.3     1  UNL1        0.0174
     29 C         141.6745  145.2553  155.9599 C.3     1  UNL1        0.0720
@<TRIPOS>BOND
     1    16    17    1
     2    17    10    1
     3    10    11   ar
     4    11    12   ar
     5    12     1    1
     6     1     2   ar
     7     2     3   ar
     8     3     4   ar
     9     4     5   ar
    10     5    18    1
    11    18    19    1
    12    19    20    1
    13    20    21    1
    14    21    24    1
    15    24    25    1
    16    25    26    1
    17    26    27    1
    18    27    28    1
    19    28    29    1
    20    21    22    1
    21    22    23    1
    22     5     6   ar
    23     6     7   ar
    24     7     8   ar
    25     8     9   ar
    26    12    13   ar
    27    13    14   ar
    28    14    15   ar
    29    15    10   ar
    30     9     1   ar
    31     7     3   ar
    32    23    18    1
    33    29    24    1
@<TRIPOS>MOLECULE
*****
 29 33 0 0 0
SMALL
GASTEIGER

@<TRIPOS>ATOM
      1 C         140.5298  141.0501  164.9447 C.ar    1  UNL1        0.0821
      2 C         141.0428  140.2873  163.7595 C.ar    1  UNL1        0.0272
      3 C         141.8530  140.9884  162.7098 C.ar    1  UNL1        0.0528
      4 S         142.4878  140.5022  161.4407 S.2     1  UNL1       -0.0514
      5 C         143.1773  141.6656  160.7919 C.ar    1  UNL1        0.1631
      6 N         142.9686  142.8710  161.6600 N.ar    1  UNL1       -0.2225
      7 C         142.1502  142.4524  162.8454 C.ar    1  UNL1        0.1084
      8 C         141.6371  143.2153  164.0306 C.ar    1  UNL1        0.1184
      9 N         140.8269  142.5141  165.0803 N.ar    1  UNL1       -0.2422
     10 C         139.2276  139.8491  168.4961 C.ar    1  UNL1        0.2250
     11 C         140.0379  140.5503  167.4464 C.ar    1  UNL1        0.0592
     12 C         139.7195  140.3489  165.9945 C.ar    1  UNL1        0.0239
     13 C         138.5909  139.4464  165.5922 C.ar    1  UNL1        0.0224
     14 C         137.7807  138.7453  166.6419 C.ar    1  UNL1        0.1021
     15 N         138.0990  138.9466  168.0939 N.ar    1  UNL1       -0.2101
     16 C         140.9187  140.4926  170.3606 C.3     1  UNL1        0.2542
     17 O         139.5460  140.0504  169.9480 O.3     1  UNL1       -0.4561
     18 N         143.9413  141.6300  159.5015 N.pl3   1  UNL1       -0.2881
     19 C         143.7049  140.5204  158.5203 C.3     1  UNL1        0.0940
     20 C         144.4689  140.4848  157.2300 C.3     1  UNL1        0.0375
     21 C         145.4693  141.5588  156.9208 C.3     1  UNL1        0.0609
     22 C         145.7057  142.6685  157.9020 C.3     1  UNL1        0.0375
     23 C         144.9417  142.7041  159.1923 C.3     1  UNL1        0.0940
     24 N         146.2333  141.5232  155.6304 N.3     1  UNL1       -0.2738
     25 C         147.6796  141.9199  155.6040 C.3     1  UNL1        0.0720
     26 C         148.4436  141.8843  154.3136 C.3     1  UNL1        0.0174
     27 C         147.7613  141.4520  153.0497 C.3     1  UNL1        0.0029
     28 C         146.3149  141.0554  153.0761 C.3     1  UNL1        0.0174
     29 C         145.5509  141.0910  154.3665 C.3     1  UNL1        0.0720
@<TRIPOS>BOND
     1    16    17    1
     2    17    10    1
     3    10    11   ar
     4    11    12   ar
     5    12     1    1
     6     1     2   ar
     7     2     3   ar
     8     3     4   ar
     9     4     5   ar
    10     5    18    1
    11    18    19    1
    12    19    20    1
    13    20    21    1
    14    21    24    1
    15    24    25    1
    16    25    26    1
    17    26    27    1
    18    27    28    1
    19    28    29    1
    20    21    22    1
    21    22    23    1
    22     5     6   ar
    23     6     7   ar
    24     7     8   ar
    25     8     9   ar
    26    12    13   ar
    27    13    14   ar
    28    14    15   ar
    29    15    10   ar
    30     9     1   ar
    31     7     3   ar
    32    23    18    1
    33    29    24    1
@<TRIPOS>MOLECULE
*****
 29 33 0 0 0
SMALL
GASTEIGER

@<TRIPOS>ATOM
      1 C         139.9472  139.2244  164.0502 C.ar    1  UNL1        0.0821
      2 C         141.0578  140.1228  163.5927 C.ar    1  UNL1        0.0272
      3 C         141.5412  140.0551  162.1744 C.ar    1  UNL1        0.0528
      4 S         142.6103  140.8098  161.4413 S.2     1  UNL1       -0.0514
      5 C         142.6438  140.3101  160.0273 C.ar    1  UNL1        0.1631
      6 N         141.5955  139.2466  159.8866 N.ar    1  UNL1       -0.2225
      7 C         140.9140  139.0889  161.2136 C.ar    1  UNL1        0.1084
      8 C         139.8034  138.1905  161.6711 C.ar    1  UNL1        0.1184
      9 N         139.3200  138.2582  163.0894 N.ar    1  UNL1       -0.2422
     10 C         139.7328  140.1732  167.8979 C.ar    1  UNL1        0.2250
     11 C         140.2163  140.1056  166.4795 C.ar    1  UNL1        0.0592
     12 C         139.4637  139.2921  165.4686 C.ar    1  UNL1        0.0239
     13 C         138.2277  138.5462  165.8761 C.ar    1  UNL1        0.0224
     14 C         137.7443  138.6139  167.2944 C.ar    1  UNL1        0.1021
     15 N         138.4968  139.4274  168.3053 N.ar    1  UNL1       -0.2101
     16 C         140.8523  142.4089  168.6040 C.3     1  UNL1        0.2542
     17 O         140.4853  140.9867  168.9087 O.3     1  UNL1       -0.4561
     18 N         143.5642  140.7897  158.9443 N.pl3   1  UNL1       -0.2881
     19 C         144.3226  142.0721  159.1179 C.3     1  UNL1        0.0940
     20 C         145.2429  142.5517  158.0349 C.3     1  UNL1        0.0375
     21 C         145.4048  141.7489  156.7782 C.3     1  UNL1        0.0609
     22 C         144.6464  140.4665  156.6046 C.3     1  UNL1        0.0375
     23 C         143.7261  139.9869  157.6876 C.3     1  UNL1        0.0940
     24 N         146.3251  142.2286  155.6952 N.3     1  UNL1       -0.2738
     25 C         147.7656  141.8103  155.6953 C.3     1  UNL1        0.0720
     26 C         148.6859  142.2899  154.6122 C.3     1  UNL1        0.0174
     27 C         148.1658  143.1878  153.5291 C.3     1  UNL1        0.0029
     28 C         146.7253  143.6061  153.5290 C.3     1  UNL1        0.0174
     29 C         145.8050  143.1264  154.6121 C.3     1  UNL1        0.0720
@<TRIPOS>BOND
     1    16    17    1
     2    17    10    1
     3    10    11   ar
     4    11    12   ar
     5    12     1    1
     6     1     2   ar
     7     2     3   ar
     8     3     4   ar
     9     4     5   ar
    10     5    18    1
    11    18    19    1
    12    19    20    1
    13    20    21    1
    14    21    24    1
    15    24    25    1
    16    25    26    1
    17    26    27    1
    18    27    28    1
    19    28    29    1
    20    21    22    1
    21    22    23    1
    22     5     6   ar
    23     6     7   ar
    24     7     8   ar
    25     8     9   ar
    26    12    13   ar
    27    13    14   ar
    28    14    15   ar
    29    15    10   ar
    30     9     1   ar
    31     7     3   ar
    32    23    18    1
    33    29    24    1
