@<TRIPOS>MOLECULE
*****
 33 36 0 0 0
SMALL
GASTEIGER

@<TRIPOS>ATOM
      1 N         140.5731  141.7334  167.8314 N.ar    1  UNL1       -0.2399
      2 N         140.4103  142.0153  166.3672 N.ar    1  UNL1       -0.1681
      3 C         139.5658  140.9254  165.7764 C.ar    1  UNL1        0.1079
      4 C         139.2067  139.9699  166.8755 C.ar    1  UNL1        0.1031
      5 C         139.8292  140.4692  168.1455 C.ar    1  UNL1        0.1280
      6 N         139.7260  139.8186  169.4932 N.pl3   1  UNL1       -0.3427
      7 H         139.2121  138.9856  169.5996 H       1  UNL1        0.1437
      8 H         140.1721  140.2246  170.2712 H       1  UNL1        0.1437
      9 C         139.1529  140.8112  164.3388 C.ar    1  UNL1        0.0197
     10 C         137.7942  141.2795  163.9092 C.ar    1  UNL1        0.0031
     11 C         137.3814  141.1653  162.4717 C.ar    1  UNL1        0.0193
     12 C         138.3272  140.5827  161.4638 C.ar    1  UNL1        0.0844
     13 N         137.9144  140.4685  160.0262 N.ar    1  UNL1       -0.2117
     14 C         138.8603  139.8860  159.0183 C.ar    1  UNL1        0.2247
     15 C         140.2190  139.4176  159.4479 C.ar    1  UNL1        0.0577
     16 C         140.6318  139.5319  160.8854 C.ar    1  UNL1        0.0063
     17 C         139.6859  140.1144  161.8933 C.ar    1  UNL1        0.0180
     18 C         140.0988  140.2287  163.3309 C.ar    1  UNL1        0.0031
     19 O         138.4474  139.7717  157.5807 O.3     1  UNL1       -0.4640
     20 C         137.4987  140.7728  156.9910 C.3     1  UNL1        0.1678
     21 C         137.2056  142.1696  156.5293 C.3     1  UNL1        0.0473
     22 C         136.1485  141.1100  156.4314 C.3     1  UNL1        0.0473
     23 C         138.3716  138.7324  166.7300 C.2     1  UNL1        0.2470
     24 N         138.5781  137.8218  165.5561 N.am    1  UNL1       -0.3252
     25 O         137.3299  138.4054  167.7587 O.2     1  UNL1       -0.2702
     26 H         139.2618  138.0364  164.8810 H       1  UNL1        0.1453
     27 H         138.0300  137.0096  165.4607 H       1  UNL1        0.1453
     28 C         142.8307  142.4051  168.9277 C.3     1  UNL1        0.0265
     29 C         141.3443  142.5688  168.8098 C.3     1  UNL1        0.1091
     30 C         140.6292  143.5680  169.6701 C.3     1  UNL1        0.0561
     31 C         139.7921  143.1012  170.8240 C.3     1  UNL1        0.1392
     32 O         140.3448  142.1004  171.7950 O.3     1  UNL1       -0.3819
     33 H         140.4842  141.2538  171.3426 H       1  UNL1        0.2104
@<TRIPOS>BOND
     1    28    29    1
     2    29    30    1
     3    30    31    1
     4    31    32    1
     5    29     1    1
     6     1     2   ar
     7     2     3   ar
     8     3     9    1
     9     9    10   ar
    10    10    11   ar
    11    11    12   ar
    12    12    13   ar
    13    13    14   ar
    14    14    19    1
    15    19    20    1
    16    20    21    1
    17    21    22    1
    18    14    15   ar
    19    15    16   ar
    20    16    17   ar
    21    17    18   ar
    22     3     4   ar
    23     4    23    1
    24    23    24   am
    25    23    25    2
    26     4     5   ar
    27     5     6    1
    28     5     1   ar
    29    18     9   ar
    30    17    12   ar
    31    22    20    1
    32    32    33    1
    33    24    26    1
    34    24    27    1
    35     6     7    1
    36     6     8    1
@<TRIPOS>MOLECULE
*****
 33 36 0 0 0
SMALL
GASTEIGER

@<TRIPOS>ATOM
      1 N         140.4607  141.6620  167.7626 N.ar    1  UNL1       -0.2399
      2 N         140.3686  141.8783  166.2812 N.ar    1  UNL1       -0.1681
      3 C         139.5520  140.7625  165.6996 C.ar    1  UNL1        0.1079
      4 C         139.1394  139.8566  166.8216 C.ar    1  UNL1        0.1031
      5 C         139.7010  140.4124  168.0966 C.ar    1  UNL1        0.1280
      6 N         139.5325  139.8224  169.4654 N.pl3   1  UNL1       -0.3427
      7 H         139.0130  138.9945  169.5840 H       1  UNL1        0.1437
      8 H         139.9413  140.2629  170.2451 H       1  UNL1        0.1437
      9 C         139.2084  140.5841  164.2504 C.ar    1  UNL1        0.0197
     10 C         137.8802  141.0496  163.7317 C.ar    1  UNL1        0.0031
     11 C         137.5366  140.8712  162.2826 C.ar    1  UNL1        0.0193
     12 C         138.5212  140.2271  161.3521 C.ar    1  UNL1        0.0844
     13 N         138.1775  140.0487  159.9029 N.ar    1  UNL1       -0.2117
     14 C         139.1622  139.4046  158.9724 C.ar    1  UNL1        0.2247
     15 C         140.4904  138.9391  159.4912 C.ar    1  UNL1        0.0577
     16 C         140.8340  139.1175  160.9403 C.ar    1  UNL1        0.0063
     17 C         139.8494  139.7616  161.8708 C.ar    1  UNL1        0.0180
     18 C         140.1930  139.9400  163.3199 C.ar    1  UNL1        0.0031
     19 O         138.8186  139.2262  157.5233 O.3     1  UNL1       -0.4640
     20 C         139.6156  138.2804  156.6745 C.3     1  UNL1        0.1678
     21 C         139.7080  137.0127  155.8780 C.3     1  UNL1        0.0473
     22 C         140.9036  137.9102  156.0008 C.3     1  UNL1        0.0473
     23 C         138.3107  138.6131  166.6915 C.2     1  UNL1        0.2470
     24 N         138.5377  137.6773  165.5415 N.am    1  UNL1       -0.3252
     25 O         137.2549  138.3053  167.7117 O.2     1  UNL1       -0.2702
     26 H         139.2306  137.8793  164.8719 H       1  UNL1        0.1453
     27 H         137.9938  136.8612  165.4562 H       1  UNL1        0.1453
     28 C         142.6724  142.4215  168.8948 C.3     1  UNL1        0.0265
     29 C         141.1853  142.5408  168.7386 C.3     1  UNL1        0.1091
     30 C         140.4227  143.5389  169.5585 C.3     1  UNL1        0.0561
     31 C         139.7852  143.1184  170.8495 C.3     1  UNL1        0.1392
     32 O         140.4572  142.0988  171.7206 O.3     1  UNL1       -0.3819
     33 H         140.4755  141.2440  171.2626 H       1  UNL1        0.2104
@<TRIPOS>BOND
     1    28    29    1
     2    29    30    1
     3    30    31    1
     4    31    32    1
     5    29     1    1
     6     1     2   ar
     7     2     3   ar
     8     3     9    1
     9     9    10   ar
    10    10    11   ar
    11    11    12   ar
    12    12    13   ar
    13    13    14   ar
    14    14    19    1
    15    19    20    1
    16    20    21    1
    17    21    22    1
    18    14    15   ar
    19    15    16   ar
    20    16    17   ar
    21    17    18   ar
    22     3     4   ar
    23     4    23    1
    24    23    24   am
    25    23    25    2
    26     4     5   ar
    27     5     6    1
    28     5     1   ar
    29    18     9   ar
    30    17    12   ar
    31    22    20    1
    32    32    33    1
    33    24    26    1
    34    24    27    1
    35     6     7    1
    36     6     8    1
@<TRIPOS>MOLECULE
*****
 33 36 0 0 0
SMALL
GASTEIGER

@<TRIPOS>ATOM
      1 N         140.4574  142.1118  168.1309 N.ar    1  UNL1       -0.2399
      2 N         140.3949  142.8490  166.8261 N.ar    1  UNL1       -0.1681
      3 C         139.7233  141.9591  165.8225 C.ar    1  UNL1        0.1079
      4 C         139.3707  140.6718  166.5072 C.ar    1  UNL1        0.1031
      5 C         139.8244  140.7662  167.9338 C.ar    1  UNL1        0.1280
      6 N         139.6718  139.7019  168.9797 N.pl3   1  UNL1       -0.3427
      7 H         139.2401  138.8468  168.7526 H       1  UNL1        0.1437
      8 H         140.0035  139.8585  169.8934 H       1  UNL1        0.1437
      9 C         139.4520  142.2970  164.3865 C.ar    1  UNL1        0.0197
     10 C         138.0394  142.4517  163.9063 C.ar    1  UNL1        0.0031
     11 C         137.7682  142.7896  162.4703 C.ar    1  UNL1        0.0193
     12 C         138.9095  142.9730  161.5145 C.ar    1  UNL1        0.0844
     13 N         138.6382  143.3110  160.0784 N.ar    1  UNL1       -0.2117
     14 C         139.7796  143.4943  159.1225 C.ar    1  UNL1        0.2247
     15 C         141.1923  143.3397  159.6027 C.ar    1  UNL1        0.0577
     16 C         141.4635  143.0017  161.0387 C.ar    1  UNL1        0.0063
     17 C         140.3221  142.8184  161.9946 C.ar    1  UNL1        0.0180
     18 C         140.5934  142.4804  163.4306 C.ar    1  UNL1        0.0031
     19 O         139.5083  143.8323  157.6865 O.3     1  UNL1       -0.4640
     20 C         140.0626  145.0947  157.0955 C.3     1  UNL1        0.1678
     21 C         141.2395  145.9403  156.7084 C.3     1  UNL1        0.0473
     22 C         139.8458  146.4354  156.4589 C.3     1  UNL1        0.0473
     23 C         138.6849  139.4966  165.8760 C.2     1  UNL1        0.2470
     24 N         139.1477  138.9843  164.5444 N.am    1  UNL1       -0.3252
     25 O         137.5362  138.8335  166.5766 O.2     1  UNL1       -0.2702
     26 H         139.9017  139.4195  164.0845 H       1  UNL1        0.1453
     27 H         138.6976  138.2129  164.1302 H       1  UNL1        0.1453
     28 C         140.4901  143.8665  170.0467 C.3     1  UNL1        0.0265
     29 C         141.0489  142.6293  169.4085 C.3     1  UNL1        0.1091
     30 C         142.1992  141.9097  170.0479 C.3     1  UNL1        0.0561
     31 C         141.9983  141.1720  171.3384 C.3     1  UNL1        0.1392
     32 O         140.6251  140.7192  171.7376 O.3     1  UNL1       -0.3819
     33 H         140.0651  141.4935  171.9042 H       1  UNL1        0.2104
@<TRIPOS>BOND
     1    28    29    1
     2    29    30    1
     3    30    31    1
     4    31    32    1
     5    29     1    1
     6     1     2   ar
     7     2     3   ar
     8     3     9    1
     9     9    10   ar
    10    10    11   ar
    11    11    12   ar
    12    12    13   ar
    13    13    14   ar
    14    14    19    1
    15    19    20    1
    16    20    21    1
    17    21    22    1
    18    14    15   ar
    19    15    16   ar
    20    16    17   ar
    21    17    18   ar
    22     3     4   ar
    23     4    23    1
    24    23    24   am
    25    23    25    2
    26     4     5   ar
    27     5     6    1
    28     5     1   ar
    29    18     9   ar
    30    17    12   ar
    31    22    20    1
    32    32    33    1
    33    24    26    1
    34    24    27    1
    35     6     7    1
    36     6     8    1
@<TRIPOS>MOLECULE
*****
 33 36 0 0 0
SMALL
GASTEIGER

@<TRIPOS>ATOM
      1 N         140.6582  141.1705  168.4809 N.ar    1  UNL1       -0.2399
      2 N         141.3111  141.3358  167.1406 N.ar    1  UNL1       -0.1681
      3 C         140.6135  140.4294  166.1701 C.ar    1  UNL1        0.1079
      4 C         139.5294  139.7038  166.9106 C.ar    1  UNL1        0.1031
      5 C         139.5570  140.1618  168.3387 C.ar    1  UNL1        0.1280
      6 N         138.6438  139.6934  169.4327 N.pl3   1  UNL1       -0.3427
      7 H         137.9476  139.0245  169.2401 H       1  UNL1        0.1437
      8 H         138.7406  140.0549  170.3433 H       1  UNL1        0.1437
      9 C         140.9423  140.2755  164.7147 C.ar    1  UNL1        0.0197
     10 C         140.1522  141.0260  163.6839 C.ar    1  UNL1        0.0031
     11 C         140.4810  140.8721  162.2285 C.ar    1  UNL1        0.0193
     12 C         141.5999  139.9678  161.8039 C.ar    1  UNL1        0.0844
     13 N         141.9287  139.8140  160.3485 N.ar    1  UNL1       -0.2117
     14 C         143.0476  138.9097  159.9239 C.ar    1  UNL1        0.2247
     15 C         143.8377  138.1592  160.9547 C.ar    1  UNL1        0.0577
     16 C         143.5089  138.3131  162.4101 C.ar    1  UNL1        0.0063
     17 C         142.3900  139.2174  162.8347 C.ar    1  UNL1        0.0180
     18 C         142.0612  139.3712  164.2901 C.ar    1  UNL1        0.0031
     19 O         143.3764  138.7558  158.4685 O.3     1  UNL1       -0.4640
     20 C         142.7389  137.6595  157.6673 C.3     1  UNL1        0.1678
     21 C         141.5733  137.1320  156.8844 C.3     1  UNL1        0.0473
     22 C         142.8004  136.2881  157.0628 C.3     1  UNL1        0.0473
     23 C         138.5837  138.6971  166.3258 C.2     1  UNL1        0.2470
     24 N         139.0056  137.8659  165.1506 N.am    1  UNL1       -0.3252
     25 O         137.2160  138.5214  166.9162 O.2     1  UNL1       -0.2702
     26 H         139.9033  137.9812  164.7631 H       1  UNL1        0.1453
     27 H         138.3849  137.2051  164.7668 H       1  UNL1        0.1453
     28 C         140.6596  143.3266  169.9304 C.3     1  UNL1        0.0265
     29 C         141.0394  141.8878  169.7418 C.3     1  UNL1        0.1091
     30 C         141.8005  141.1663  170.8143 C.3     1  UNL1        0.0561
     31 C         142.7877  140.0991  170.4447 C.3     1  UNL1        0.1392
     32 O         143.8342  139.6715  171.4306 O.3     1  UNL1       -0.3819
     33 H         144.4444  140.4076  171.5941 H       1  UNL1        0.2104
@<TRIPOS>BOND
     1    28    29    1
     2    29    30    1
     3    30    31    1
     4    31    32    1
     5    29     1    1
     6     1     2   ar
     7     2     3   ar
     8     3     9    1
     9     9    10   ar
    10    10    11   ar
    11    11    12   ar
    12    12    13   ar
    13    13    14   ar
    14    14    19    1
    15    19    20    1
    16    20    21    1
    17    21    22    1
    18    14    15   ar
    19    15    16   ar
    20    16    17   ar
    21    17    18   ar
    22     3     4   ar
    23     4    23    1
    24    23    24   am
    25    23    25    2
    26     4     5   ar
    27     5     6    1
    28     5     1   ar
    29    18     9   ar
    30    17    12   ar
    31    22    20    1
    32    32    33    1
    33    24    26    1
    34    24    27    1
    35     6     7    1
    36     6     8    1
@<TRIPOS>MOLECULE
*****
 33 36 0 0 0
SMALL
GASTEIGER

@<TRIPOS>ATOM
      1 N         140.4140  140.4155  168.4192 N.ar    1  UNL1       -0.2399
      2 N         139.6998  140.2288  167.1134 N.ar    1  UNL1       -0.1681
      3 C         140.6714  139.6403  166.1337 C.ar    1  UNL1        0.1079
      4 C         141.9860  139.4632  166.8340 C.ar    1  UNL1        0.1031
      5 C         141.8269  139.9423  168.2465 C.ar    1  UNL1        0.1280
      6 N         142.8935  139.9474  169.3012 N.pl3   1  UNL1       -0.3427
      7 H         143.7958  139.6145  169.0904 H       1  UNL1        0.1437
      8 H         142.6913  140.2836  170.2041 H       1  UNL1        0.1437
      9 C         140.3795  139.2902  164.7045 C.ar    1  UNL1        0.0197
     10 C         140.2477  137.8529  164.2963 C.ar    1  UNL1        0.0031
     11 C         139.9559  137.5029  162.8672 C.ar    1  UNL1        0.0193
     12 C         139.7957  138.5902  161.8464 C.ar    1  UNL1        0.0844
     13 N         139.5038  138.2402  160.4173 N.ar    1  UNL1       -0.2117
     14 C         139.3437  139.3275  159.3965 C.ar    1  UNL1        0.2247
     15 C         139.4755  140.7649  159.8048 C.ar    1  UNL1        0.0577
     16 C         139.7673  141.1149  161.2339 C.ar    1  UNL1        0.0063
     17 C         139.9275  140.0276  162.2547 C.ar    1  UNL1        0.0180
     18 C         140.2193  140.3775  163.6837 C.ar    1  UNL1        0.0031
     19 O         139.0518  138.9775  157.9674 O.3     1  UNL1       -0.4640
     20 C         139.9667  138.0534  157.2196 C.3     1  UNL1        0.1678
     21 C         141.3254  137.4490  157.0229 C.3     1  UNL1        0.0473
     22 C         140.1925  137.0573  156.1211 C.3     1  UNL1        0.0473
     23 C         143.2395  138.9050  166.2282 C.2     1  UNL1        0.2470
     24 N         143.6951  139.3765  164.8792 N.am    1  UNL1       -0.3252
     25 O         144.0375  137.8751  166.9717 O.2     1  UNL1       -0.2702
     26 H         143.1714  140.0524  164.3913 H       1  UNL1        0.1453
     27 H         144.5179  139.0101  164.4817 H       1  UNL1        0.1453
     28 C         138.6356  140.3084  170.3101 C.3     1  UNL1        0.0265
     29 C         139.8196  140.9769  169.6768 C.3     1  UNL1        0.1091
     30 C         140.4093  142.2067  170.3010 C.3     1  UNL1        0.0561
     31 C         140.4126  143.5030  169.5463 C.3     1  UNL1        0.1392
     32 O         140.1346  144.7899  170.2649 O.3     1  UNL1       -0.3819
     33 H         139.2187  144.7905  170.5845 H       1  UNL1        0.2104
@<TRIPOS>BOND
     1    28    29    1
     2    29    30    1
     3    30    31    1
     4    31    32    1
     5    29     1    1
     6     1     2   ar
     7     2     3   ar
     8     3     9    1
     9     9    10   ar
    10    10    11   ar
    11    11    12   ar
    12    12    13   ar
    13    13    14   ar
    14    14    19    1
    15    19    20    1
    16    20    21    1
    17    21    22    1
    18    14    15   ar
    19    15    16   ar
    20    16    17   ar
    21    17    18   ar
    22     3     4   ar
    23     4    23    1
    24    23    24   am
    25    23    25    2
    26     4     5   ar
    27     5     6    1
    28     5     1   ar
    29    18     9   ar
    30    17    12   ar
    31    22    20    1
    32    32    33    1
    33    24    26    1
    34    24    27    1
    35     6     7    1
    36     6     8    1
@<TRIPOS>MOLECULE
*****
 33 36 0 0 0
SMALL
GASTEIGER

@<TRIPOS>ATOM
      1 N         139.9770  141.1509  167.8578 N.ar    1  UNL1       -0.2399
      2 N         140.4311  142.2608  166.9568 N.ar    1  UNL1       -0.1681
      3 C         139.8443  142.0234  165.5969 C.ar    1  UNL1        0.1079
      4 C         139.0276  140.7667  165.6574 C.ar    1  UNL1        0.1031
      5 C         139.1096  140.2274  167.0547 C.ar    1  UNL1        0.1280
      6 N         138.4415  138.9832  167.5602 N.pl3   1  UNL1       -0.3427
      7 H         137.8887  138.4399  166.9532 H       1  UNL1        0.1437
      8 H         138.5558  138.7099  168.4991 H       1  UNL1        0.1437
      9 C         140.0400  142.8905  164.3885 C.ar    1  UNL1        0.0197
     10 C         139.3379  144.2125  164.2925 C.ar    1  UNL1        0.0031
     11 C         139.5335  145.0795  163.0842 C.ar    1  UNL1        0.0193
     12 C         140.4313  144.6244  161.9720 C.ar    1  UNL1        0.0844
     13 N         140.6269  145.4915  160.7636 N.ar    1  UNL1       -0.2117
     14 C         141.5247  145.0365  159.6514 C.ar    1  UNL1        0.2247
     15 C         142.2268  143.7144  159.7476 C.ar    1  UNL1        0.0577
     16 C         142.0311  142.8474  160.9558 C.ar    1  UNL1        0.0063
     17 C         141.1334  143.3024  162.0680 C.ar    1  UNL1        0.0180
     18 C         140.9377  142.4354  163.2763 C.ar    1  UNL1        0.0031
     19 O         141.7203  145.9035  158.4432 O.3     1  UNL1       -0.4640
     20 C         140.6692  145.9482  157.3739 C.3     1  UNL1        0.1678
     21 C         139.8235  145.2457  156.3535 C.3     1  UNL1        0.0473
     22 C         139.6944  146.7281  156.5424 C.3     1  UNL1        0.0473
     23 C         138.2631  140.1564  164.5203 C.2     1  UNL1        0.2470
     24 N         137.2973  140.9908  163.7323 N.am    1  UNL1       -0.3252
     25 O         138.4644  138.7114  164.1712 O.2     1  UNL1       -0.2702
     26 H         137.1652  141.9391  163.9614 H       1  UNL1        0.1453
     27 H         136.7956  140.5901  162.9860 H       1  UNL1        0.1453
     28 C         139.9223  142.0436  170.2971 C.3     1  UNL1        0.0265
     29 C         140.3286  140.9922  169.3073 C.3     1  UNL1        0.1091
     30 C         141.0866  139.7822  169.7671 C.3     1  UNL1        0.0561
     31 C         142.5179  139.9122  170.1964 C.3     1  UNL1        0.1392
     32 O         142.8470  140.2118  171.6289 O.3     1  UNL1       -0.3819
     33 H         142.5284  141.0996  171.8550 H       1  UNL1        0.2104
@<TRIPOS>BOND
     1    28    29    1
     2    29    30    1
     3    30    31    1
     4    31    32    1
     5    29     1    1
     6     1     2   ar
     7     2     3   ar
     8     3     9    1
     9     9    10   ar
    10    10    11   ar
    11    11    12   ar
    12    12    13   ar
    13    13    14   ar
    14    14    19    1
    15    19    20    1
    16    20    21    1
    17    21    22    1
    18    14    15   ar
    19    15    16   ar
    20    16    17   ar
    21    17    18   ar
    22     3     4   ar
    23     4    23    1
    24    23    24   am
    25    23    25    2
    26     4     5   ar
    27     5     6    1
    28     5     1   ar
    29    18     9   ar
    30    17    12   ar
    31    22    20    1
    32    32    33    1
    33    24    26    1
    34    24    27    1
    35     6     7    1
    36     6     8    1
@<TRIPOS>MOLECULE
*****
 33 36 0 0 0
SMALL
GASTEIGER

@<TRIPOS>ATOM
      1 N         140.1607  140.5867  167.6652 N.ar    1  UNL1       -0.2399
      2 N         140.9318  141.4781  166.7374 N.ar    1  UNL1       -0.1681
      3 C         140.4106  141.2624  165.3475 C.ar    1  UNL1        0.1079
      4 C         139.3174  140.2376  165.4162 C.ar    1  UNL1        0.1031
      5 C         139.1629  139.8200  166.8486 C.ar    1  UNL1        0.1280
      6 N         138.1828  138.8126  167.3725 N.pl3   1  UNL1       -0.3427
      7 H         137.5649  138.3594  166.7544 H       1  UNL1        0.1437
      8 H         138.1573  138.6046  168.3344 H       1  UNL1        0.1437
      9 C         140.8972  141.9506  164.1066 C.ar    1  UNL1        0.0197
     10 C         142.1930  141.5334  163.4767 C.ar    1  UNL1        0.0031
     11 C         142.6796  142.2216  162.2360 C.ar    1  UNL1        0.0193
     12 C         141.8704  143.3271  161.6251 C.ar    1  UNL1        0.0844
     13 N         142.3570  144.0153  160.3843 N.ar    1  UNL1       -0.2117
     14 C         141.5478  145.1208  159.7734 C.ar    1  UNL1        0.2247
     15 C         140.2520  145.5380  160.4034 C.ar    1  UNL1        0.0577
     16 C         139.7654  144.8498  161.6442 C.ar    1  UNL1        0.0063
     17 C         140.5746  143.7443  162.2550 C.ar    1  UNL1        0.0180
     18 C         140.0880  143.0561  163.4958 C.ar    1  UNL1        0.0031
     19 O         142.0344  145.8090  158.5327 O.3     1  UNL1       -0.4640
     20 C         141.1361  145.9228  157.3368 C.3     1  UNL1        0.1678
     21 C         139.9150  146.4940  156.6789 C.3     1  UNL1        0.0473
     22 C         140.8012  145.5486  155.9233 C.3     1  UNL1        0.0473
     23 C         138.5188  139.7211  164.2563 C.2     1  UNL1        0.2470
     24 N         138.7120  138.3117  163.7809 N.am    1  UNL1       -0.3252
     25 O         137.5270  140.6142  163.5716 O.2     1  UNL1       -0.2702
     26 H         139.3630  137.7255  164.2302 H       1  UNL1        0.1453
     27 H         138.1878  137.9728  163.0196 H       1  UNL1        0.1453
     28 C         141.4467  139.6158  169.7032 C.3     1  UNL1        0.0265
     29 C         140.3535  140.4806  169.1489 C.3     1  UNL1        0.1091
     30 C         139.4531  141.2391  170.0783 C.3     1  UNL1        0.0561
     31 C         139.8338  142.6169  170.5330 C.3     1  UNL1        0.1392
     32 O         138.9118  143.3937  171.4255 O.3     1  UNL1       -0.3819
     33 H         138.0953  143.6012  170.9447 H       1  UNL1        0.2104
@<TRIPOS>BOND
     1    28    29    1
     2    29    30    1
     3    30    31    1
     4    31    32    1
     5    29     1    1
     6     1     2   ar
     7     2     3   ar
     8     3     9    1
     9     9    10   ar
    10    10    11   ar
    11    11    12   ar
    12    12    13   ar
    13    13    14   ar
    14    14    19    1
    15    19    20    1
    16    20    21    1
    17    21    22    1
    18    14    15   ar
    19    15    16   ar
    20    16    17   ar
    21    17    18   ar
    22     3     4   ar
    23     4    23    1
    24    23    24   am
    25    23    25    2
    26     4     5   ar
    27     5     6    1
    28     5     1   ar
    29    18     9   ar
    30    17    12   ar
    31    22    20    1
    32    32    33    1
    33    24    26    1
    34    24    27    1
    35     6     7    1
    36     6     8    1
@<TRIPOS>MOLECULE
*****
 33 36 0 0 0
SMALL
GASTEIGER

@<TRIPOS>ATOM
      1 N         141.1989  140.9019  168.5499 N.ar    1  UNL1       -0.2399
      2 N         141.9596  141.1060  167.2733 N.ar    1  UNL1       -0.1681
      3 C         141.1121  140.6020  166.1430 C.ar    1  UNL1        0.1079
      4 C         139.8275  140.0864  166.7209 C.ar    1  UNL1        0.1031
      5 C         139.8811  140.2718  168.2085 C.ar    1  UNL1        0.1280
      6 N         138.8058  139.8934  169.1835 N.pl3   1  UNL1       -0.3427
      7 H         137.9712  139.4828  168.8609 H       1  UNL1        0.1437
      8 H         138.9347  140.0557  170.1459 H       1  UNL1        0.1437
      9 C         141.4839  140.6118  164.6897 C.ar    1  UNL1        0.0197
     10 C         140.9505  141.6838  163.7864 C.ar    1  UNL1        0.0031
     11 C         141.3223  141.6936  162.3332 C.ar    1  UNL1        0.0193
     12 C         142.2275  140.6314  161.7835 C.ar    1  UNL1        0.0844
     13 N         142.5993  140.6412  160.3303 N.ar    1  UNL1       -0.2117
     14 C         143.5045  139.5790  159.7805 C.ar    1  UNL1        0.2247
     15 C         144.0379  138.5069  160.6840 C.ar    1  UNL1        0.0577
     16 C         143.6661  138.4971  162.1371 C.ar    1  UNL1        0.0063
     17 C         142.7609  139.5593  162.6869 C.ar    1  UNL1        0.0180
     18 C         142.3891  139.5495  164.1400 C.ar    1  UNL1        0.0031
     19 O         143.8763  139.5887  158.3274 O.3     1  UNL1       -0.4640
     20 C         144.5548  140.7882  157.7349 C.3     1  UNL1        0.1678
     21 C         145.5383  141.3791  156.7687 C.3     1  UNL1        0.0473
     22 C         144.7466  142.2746  157.6749 C.3     1  UNL1        0.0473
     23 C         138.6892  139.4901  165.9473 C.2     1  UNL1        0.2470
     24 N         137.8160  140.3683  165.1010 N.am    1  UNL1       -0.3252
     25 O         138.4240  138.0155  166.0199 O.2     1  UNL1       -0.2702
     26 H         137.9900  141.3361  165.0533 H       1  UNL1        0.1453
     27 H         137.0688  139.9769  164.5932 H       1  UNL1        0.1453
     28 C         142.5052  140.2953  170.7122 C.3     1  UNL1        0.0265
     29 C         141.6727  141.2644  169.9261 C.3     1  UNL1        0.1091
     30 C         141.3139  142.5959  170.5164 C.3     1  UNL1        0.0561
     31 C         140.4838  143.5660  169.7292 C.3     1  UNL1        0.1392
     32 O         140.1259  144.8979  170.3190 O.3     1  UNL1       -0.3819
     33 H         139.5423  144.7671  171.0826 H       1  UNL1        0.2104
@<TRIPOS>BOND
     1    28    29    1
     2    29    30    1
     3    30    31    1
     4    31    32    1
     5    29     1    1
     6     1     2   ar
     7     2     3   ar
     8     3     9    1
     9     9    10   ar
    10    10    11   ar
    11    11    12   ar
    12    12    13   ar
    13    13    14   ar
    14    14    19    1
    15    19    20    1
    16    20    21    1
    17    21    22    1
    18    14    15   ar
    19    15    16   ar
    20    16    17   ar
    21    17    18   ar
    22     3     4   ar
    23     4    23    1
    24    23    24   am
    25    23    25    2
    26     4     5   ar
    27     5     6    1
    28     5     1   ar
    29    18     9   ar
    30    17    12   ar
    31    22    20    1
    32    32    33    1
    33    24    26    1
    34    24    27    1
    35     6     7    1
    36     6     8    1
@<TRIPOS>MOLECULE
*****
 33 36 0 0 0
SMALL
GASTEIGER

@<TRIPOS>ATOM
      1 N         141.7919  139.8381  167.9018 N.ar    1  UNL1       -0.2399
      2 N         142.6580  139.7403  166.6810 N.ar    1  UNL1       -0.1681
      3 C         141.7631  139.5563  165.4913 C.ar    1  UNL1        0.1079
      4 C         140.3439  139.5404  165.9768 C.ar    1  UNL1        0.1031
      5 C         140.3617  139.7145  167.4666 C.ar    1  UNL1        0.1280
      6 N         139.1603  139.7575  168.3636 N.pl3   1  UNL1       -0.3427
      7 H         138.2574  139.6671  167.9818 H       1  UNL1        0.1437
      8 H         139.2746  139.8763  169.3342 H       1  UNL1        0.1437
      9 C         142.2091  139.4133  164.0663 C.ar    1  UNL1        0.0197
     10 C         142.2860  138.0538  163.4372 C.ar    1  UNL1        0.0031
     11 C         142.7320  137.9109  162.0123 C.ar    1  UNL1        0.0193
     12 C         143.1011  139.1275  161.2163 C.ar    1  UNL1        0.0844
     13 N         143.5472  138.9845  159.7913 N.ar    1  UNL1       -0.2117
     14 C         143.9163  140.2012  158.9953 C.ar    1  UNL1        0.2247
     15 C         143.8395  141.5607  159.6244 C.ar    1  UNL1        0.0577
     16 C         143.3935  141.7037  161.0494 C.ar    1  UNL1        0.0063
     17 C         143.0243  140.4870  161.8453 C.ar    1  UNL1        0.0180
     18 C         142.5783  140.6299  163.2703 C.ar    1  UNL1        0.0031
     19 O         144.3623  140.0582  157.5703 O.3     1  UNL1       -0.4640
     20 C         145.0776  141.1885  156.8913 C.3     1  UNL1        0.1678
     21 C         145.0766  142.3253  155.9126 C.3     1  UNL1        0.0473
     22 C         146.3174  142.0094  156.6940 C.3     1  UNL1        0.0473
     23 C         139.1216  139.3787  165.1226 C.2     1  UNL1        0.2470
     24 N         138.1043  140.4787  165.0531 N.am    1  UNL1       -0.3252
     25 O         138.9166  138.1168  164.3379 O.2     1  UNL1       -0.2702
     26 H         138.2388  141.3069  165.5681 H       1  UNL1        0.1453
     27 H         137.3020  140.3725  164.4924 H       1  UNL1        0.1453
     28 C         142.5242  138.8324  170.1827 C.3     1  UNL1        0.0265
     29 C         142.2717  140.0263  169.3105 C.3     1  UNL1        0.1091
     30 C         142.4991  141.4086  169.8469 C.3     1  UNL1        0.0561
     31 C         143.6116  142.2522  169.2986 C.3     1  UNL1        0.1392
     32 O         144.6131  142.8696  170.2290 O.3     1  UNL1       -0.3819
     33 H         144.1717  143.5271  170.7891 H       1  UNL1        0.2104
@<TRIPOS>BOND
     1    28    29    1
     2    29    30    1
     3    30    31    1
     4    31    32    1
     5    29     1    1
     6     1     2   ar
     7     2     3   ar
     8     3     9    1
     9     9    10   ar
    10    10    11   ar
    11    11    12   ar
    12    12    13   ar
    13    13    14   ar
    14    14    19    1
    15    19    20    1
    16    20    21    1
    17    21    22    1
    18    14    15   ar
    19    15    16   ar
    20    16    17   ar
    21    17    18   ar
    22     3     4   ar
    23     4    23    1
    24    23    24   am
    25    23    25    2
    26     4     5   ar
    27     5     6    1
    28     5     1   ar
    29    18     9   ar
    30    17    12   ar
    31    22    20    1
    32    32    33    1
    33    24    26    1
    34    24    27    1
    35     6     7    1
    36     6     8    1
