@<TRIPOS>MOLECULE
*****
 31 33 0 0 0
SMALL
GASTEIGER

@<TRIPOS>ATOM
      1 C         141.1834  144.0741  163.5141 C.ar    1  UNL1        0.1255
      2 C         142.1688  143.2097  164.2434 C.ar    1  UNL1        0.0233
      3 C         141.8324  142.6715  165.6025 C.ar    1  UNL1        0.0383
      4 C         140.5107  142.9976  166.2323 C.ar    1  UNL1        0.1386
      5 C         139.5253  143.8620  165.5030 C.ar    1  UNL1        0.0383
      6 C         139.8616  144.4002  164.1439 C.ar    1  UNL1        0.0233
      7 S         141.5197  144.6123  162.1550 S.O2    1  UNL1        0.0768
      8 O         142.2161  143.3271  161.8184 O.2     1  UNL1       -0.1498
      9 O         140.8233  145.8974  162.4916 O.2     1  UNL1       -0.1498
     10 O         139.4922  144.4850  159.9474 O.2     1  UNL1       -0.2512
     11 C         140.8423  145.0868  159.6920 C.2     1  UNL1        0.3194
     12 N         141.1786  145.6250  158.3329 N.am    1  UNL1       -0.2894
     13 N         141.8560  145.1505  160.7959 N.am    1  UNL1       -0.1693
     14 H         142.0646  146.0201  158.1654 H       1  UNL1        0.1509
     15 H         142.7421  145.5455  160.6283 H       1  UNL1        0.1781
     16 C         140.1648  145.5614  157.2291 C.3     1  UNL1        0.0731
     17 C         139.6884  144.2318  156.7242 C.3     1  UNL1        0.0196
     18 C         138.6747  144.1682  155.6204 C.3     1  UNL1        0.0017
     19 C         138.1375  145.4342  155.0216 C.3     1  UNL1        0.0001
     20 C         138.6139  146.7638  155.5265 C.3     1  UNL1        0.0017
     21 C         139.6276  146.8274  156.6303 C.3     1  UNL1        0.0196
     22 O         140.1744  142.4594  167.5914 O.3     1  UNL1       -0.4755
     23 C         140.6545  141.0980  167.9988 C.3     1  UNL1        0.2054
     24 C         139.7692  139.9022  167.8075 C.3     1  UNL1        0.0488
     25 C         138.9501  139.7677  166.5581 C.3     1  UNL1        0.0212
     26 C         139.6270  139.5502  165.2374 C.3     1  UNL1        0.0722
     27 N         139.1862  140.3263  164.0318 N.3     1  UNL1       -0.2727
     28 C         137.8633  141.0121  163.8600 C.3     1  UNL1        0.0721
     29 C         137.8504  141.6626  162.5084 C.3     1  UNL1        0.0188
     30 C         139.1654  141.3788  161.8449 C.3     1  UNL1        0.0188
     31 C         139.9910  140.5529  162.7864 C.3     1  UNL1        0.0721
@<TRIPOS>BOND
     1    10    11    2
     2    11    12   am
     3    12    16    1
     4    16    17    1
     5    17    18    1
     6    18    19    1
     7    19    20    1
     8    20    21    1
     9    11    13   am
    10    13     7    1
    11     7     8    2
    12     7     9    2
    13     7     1    1
    14     1     2   ar
    15     2     3   ar
    16     3     4   ar
    17     4    22    1
    18    22    23    1
    19    23    24    1
    20    24    25    1
    21    25    26    1
    22    26    27    1
    23    27    28    1
    24    28    29    1
    25    29    30    1
    26    30    31    1
    27     4     5   ar
    28     5     6   ar
    29    21    16    1
    30     6     1   ar
    31    31    27    1
    32    12    14    1
    33    13    15    1
@<TRIPOS>MOLECULE
*****
 31 33 0 0 0
SMALL
GASTEIGER

@<TRIPOS>ATOM
      1 C         141.1066  143.9351  163.4164 C.ar    1  UNL1        0.1255
      2 C         139.9726  144.4606  164.2458 C.ar    1  UNL1        0.0233
      3 C         139.6266  143.8003  165.5475 C.ar    1  UNL1        0.0383
      4 C         140.4146  142.6145  166.0197 C.ar    1  UNL1        0.1386
      5 C         141.5486  142.0890  165.1903 C.ar    1  UNL1        0.0383
      6 C         141.8946  142.7493  163.8887 C.ar    1  UNL1        0.0233
      7 S         141.4526  144.5954  162.1148 S.O2    1  UNL1        0.0768
      8 O         140.7022  145.8232  162.5381 O.2     1  UNL1       -0.1498
      9 O         142.2031  143.3676  161.6915 O.2     1  UNL1       -0.1498
     10 O         139.5979  144.3515  159.7695 O.2     1  UNL1       -0.2512
     11 C         140.8713  145.1337  159.6405 C.2     1  UNL1        0.3194
     12 N         141.2173  145.7940  158.3388 N.am    1  UNL1       -0.2894
     13 N         141.7987  145.2557  160.8132 N.am    1  UNL1       -0.1693
     14 H         142.0531  146.3074  158.2542 H       1  UNL1        0.1509
     15 H         142.6344  145.7690  160.7285 H       1  UNL1        0.1781
     16 C         140.2899  145.6721  157.1661 C.3     1  UNL1        0.0731
     17 C         140.0990  144.3439  156.4958 C.3     1  UNL1        0.0196
     18 C         139.1717  144.2220  155.3232 C.3     1  UNL1        0.0017
     19 C         138.4353  145.4284  154.8208 C.3     1  UNL1        0.0001
     20 C         138.6262  146.7566  155.4911 C.3     1  UNL1        0.0017
     21 C         139.5535  146.8784  156.6638 C.3     1  UNL1        0.0196
     22 O         140.0685  141.9542  167.3213 O.3     1  UNL1       -0.4755
     23 C         140.0642  140.4579  167.4254 C.3     1  UNL1        0.2054
     24 C         139.0173  139.6591  166.7070 C.3     1  UNL1        0.0488
     25 C         139.2831  139.1479  165.3221 C.3     1  UNL1        0.0212
     26 C         140.3245  138.0915  165.0996 C.3     1  UNL1        0.0722
     27 N         141.7435  138.4855  164.8147 N.3     1  UNL1       -0.2727
     28 C         142.8512  138.5806  165.8216 C.3     1  UNL1        0.0721
     29 C         144.0963  139.0074  165.1021 C.3     1  UNL1        0.0188
     30 C         143.7581  139.1760  163.6505 C.3     1  UNL1        0.0188
     31 C         142.3040  138.8534  163.4729 C.3     1  UNL1        0.0721
@<TRIPOS>BOND
     1    10    11    2
     2    11    12   am
     3    12    16    1
     4    16    17    1
     5    17    18    1
     6    18    19    1
     7    19    20    1
     8    20    21    1
     9    11    13   am
    10    13     7    1
    11     7     8    2
    12     7     9    2
    13     7     1    1
    14     1     2   ar
    15     2     3   ar
    16     3     4   ar
    17     4    22    1
    18    22    23    1
    19    23    24    1
    20    24    25    1
    21    25    26    1
    22    26    27    1
    23    27    28    1
    24    28    29    1
    25    29    30    1
    26    30    31    1
    27     4     5   ar
    28     5     6   ar
    29    21    16    1
    30     6     1   ar
    31    31    27    1
    32    12    14    1
    33    13    15    1
@<TRIPOS>MOLECULE
*****
 31 33 0 0 0
SMALL
GASTEIGER

@<TRIPOS>ATOM
      1 C         140.9660  143.2282  163.4122 C.ar    1  UNL1        0.1255
      2 C         140.6562  143.7572  164.7812 C.ar    1  UNL1        0.0233
      3 C         140.1506  142.8303  165.8467 C.ar    1  UNL1        0.0383
      4 C         139.9549  141.3745  165.5433 C.ar    1  UNL1        0.1386
      5 C         140.2648  140.8454  164.1743 C.ar    1  UNL1        0.0383
      6 C         140.7703  141.7722  163.1088 C.ar    1  UNL1        0.0233
      7 S         141.4716  144.1550  162.3467 S.O2    1  UNL1        0.0768
      8 O         140.4533  145.1784  162.7537 O.2     1  UNL1       -0.1498
      9 O         142.4899  143.1316  161.9396 O.2     1  UNL1       -0.1498
     10 O         140.3428  144.0074  159.5711 O.2     1  UNL1       -0.2512
     11 C         141.4128  145.0080  159.8933 C.2     1  UNL1        0.3194
     12 N         141.9183  145.9349  158.8278 N.am    1  UNL1       -0.2894
     13 N         141.9772  145.0818  161.2812 N.am    1  UNL1       -0.1693
     14 H         142.6206  146.5916  159.0393 H       1  UNL1        0.1509
     15 H         142.6794  145.7386  161.4927 H       1  UNL1        0.1781
     16 C         141.3539  145.8610  157.4400 C.3     1  UNL1        0.0731
     17 C         142.1649  145.2580  156.3316 C.3     1  UNL1        0.0196
     18 C         141.6005  145.1842  154.9438 C.3     1  UNL1        0.0017
     19 C         140.2251  145.7135  154.6644 C.3     1  UNL1        0.0001
     20 C         139.4141  146.3165  155.7728 C.3     1  UNL1        0.0017
     21 C         139.9785  146.3903  157.1605 C.3     1  UNL1        0.0196
     22 O         139.4494  140.4476  166.6088 O.3     1  UNL1       -0.4755
     23 C         140.2309  140.2641  167.8758 C.3     1  UNL1        0.2054
     24 C         141.7180  140.4613  167.8750 C.3     1  UNL1        0.0488
     25 C         142.6185  139.3732  167.3701 C.3     1  UNL1        0.0212
     26 C         142.8782  139.2369  165.8990 C.3     1  UNL1        0.0722
     27 N         143.7779  140.2144  165.2025 N.3     1  UNL1       -0.2727
     28 C         144.8930  139.8697  164.2604 C.3     1  UNL1        0.0721
     29 C         145.5247  141.1505  163.8014 C.3     1  UNL1        0.0188
     30 C         144.7999  142.2867  164.4598 C.3     1  UNL1        0.0188
     31 C         143.7203  141.7082  165.3258 C.3     1  UNL1        0.0721
@<TRIPOS>BOND
     1    10    11    2
     2    11    12   am
     3    12    16    1
     4    16    17    1
     5    17    18    1
     6    18    19    1
     7    19    20    1
     8    20    21    1
     9    11    13   am
    10    13     7    1
    11     7     8    2
    12     7     9    2
    13     7     1    1
    14     1     2   ar
    15     2     3   ar
    16     3     4   ar
    17     4    22    1
    18    22    23    1
    19    23    24    1
    20    24    25    1
    21    25    26    1
    22    26    27    1
    23    27    28    1
    24    28    29    1
    25    29    30    1
    26    30    31    1
    27     4     5   ar
    28     5     6   ar
    29    21    16    1
    30     6     1   ar
    31    31    27    1
    32    12    14    1
    33    13    15    1
@<TRIPOS>MOLECULE
*****
 31 33 0 0 0
SMALL
GASTEIGER

@<TRIPOS>ATOM
      1 C         141.4533  142.9543  162.6726 C.ar    1  UNL1        0.1255
      2 C         141.7307  141.5133  162.3619 C.ar    1  UNL1        0.0233
      3 C         141.4032  140.4521  163.3702 C.ar    1  UNL1        0.0383
      4 C         140.7983  140.8319  164.6892 C.ar    1  UNL1        0.1386
      5 C         140.5208  142.2729  164.9999 C.ar    1  UNL1        0.0383
      6 C         140.8483  143.3341  163.9917 C.ar    1  UNL1        0.0233
      7 S         141.7808  144.0155  161.6644 S.O2    1  UNL1        0.0768
      8 O         142.9726  143.2224  161.2167 O.2     1  UNL1       -0.1498
      9 O         140.5890  144.8087  162.1121 O.2     1  UNL1       -0.1498
     10 O         140.6398  143.8561  158.8944 O.2     1  UNL1       -0.2512
     11 C         141.5378  144.9970  159.2711 C.2     1  UNL1        0.3194
     12 N         141.8652  146.0582  158.2629 N.am    1  UNL1       -0.2894
     13 N         142.1083  145.0767  160.6562 N.am    1  UNL1       -0.1693
     14 H         142.4546  146.8070  158.5102 H       1  UNL1        0.1509
     15 H         142.6977  145.8255  160.9034 H       1  UNL1        0.1781
     16 C         141.2947  145.9785  156.8779 C.3     1  UNL1        0.0731
     17 C         139.9258  146.5242  156.5981 C.3     1  UNL1        0.0196
     18 C         139.3554  146.4445  155.2131 C.3     1  UNL1        0.0017
     19 C         140.1539  145.8191  154.1079 C.3     1  UNL1        0.0001
     20 C         141.5227  145.2735  154.3877 C.3     1  UNL1        0.0017
     21 C         142.0932  145.3532  155.7727 C.3     1  UNL1        0.0196
     22 O         140.4708  139.7707  165.6974 O.3     1  UNL1       -0.4755
     23 C         140.1074  138.3889  165.2408 C.3     1  UNL1        0.2054
     24 C         138.8309  138.1594  164.4872 C.3     1  UNL1        0.0488
     25 C         138.8710  137.8563  163.0187 C.3     1  UNL1        0.0212
     26 C         137.9258  138.5505  162.0834 C.3     1  UNL1        0.0722
     27 N         137.9413  140.0465  161.9753 N.3     1  UNL1       -0.2727
     28 C         138.3803  140.8396  160.7802 C.3     1  UNL1        0.0721
     29 C         138.2309  142.2953  161.1095 C.3     1  UNL1        0.0188
     30 C         137.6995  142.4020  162.5082 C.3     1  UNL1        0.0188
     31 C         137.5206  141.0121  163.0432 C.3     1  UNL1        0.0721
@<TRIPOS>BOND
     1    10    11    2
     2    11    12   am
     3    12    16    1
     4    16    17    1
     5    17    18    1
     6    18    19    1
     7    19    20    1
     8    20    21    1
     9    11    13   am
    10    13     7    1
    11     7     8    2
    12     7     9    2
    13     7     1    1
    14     1     2   ar
    15     2     3   ar
    16     3     4   ar
    17     4    22    1
    18    22    23    1
    19    23    24    1
    20    24    25    1
    21    25    26    1
    22    26    27    1
    23    27    28    1
    24    28    29    1
    25    29    30    1
    26    30    31    1
    27     4     5   ar
    28     5     6   ar
    29    21    16    1
    30     6     1   ar
    31    31    27    1
    32    12    14    1
    33    13    15    1
@<TRIPOS>MOLECULE
*****
 31 33 0 0 0
SMALL
GASTEIGER

@<TRIPOS>ATOM
      1 C         140.9987  143.1835  162.9070 C.ar    1  UNL1        0.1255
      2 C         140.2719  141.9327  162.5104 C.ar    1  UNL1        0.0233
      3 C         139.7548  140.9995  163.5648 C.ar    1  UNL1        0.0383
      4 C         139.9645  141.3170  165.0157 C.ar    1  UNL1        0.1386
      5 C         140.6913  142.5678  165.4123 C.ar    1  UNL1        0.0383
      6 C         141.2084  143.5011  164.3580 C.ar    1  UNL1        0.0233
      7 S         141.5158  144.1168  161.8527 S.O2    1  UNL1        0.0768
      8 O         140.4992  145.1413  162.2609 O.2     1  UNL1       -0.1498
      9 O         142.5325  143.0923  161.4444 O.2     1  UNL1       -0.1498
     10 O         140.3922  144.0100  159.0731 O.2     1  UNL1       -0.2512
     11 C         141.4711  144.9967  159.4085 C.2     1  UNL1        0.3194
     12 N         141.9882  145.9299  158.3542 N.am    1  UNL1       -0.2894
     13 N         142.0329  145.0500  160.7984 N.am    1  UNL1       -0.1693
     14 H         142.6963  146.5775  158.5744 H       1  UNL1        0.1509
     15 H         142.7410  145.6976  161.0185 H       1  UNL1        0.1781
     16 C         141.4264  145.8766  156.9644 C.3     1  UNL1        0.0731
     17 C         140.0922  146.4959  156.6704 C.3     1  UNL1        0.0196
     18 C         139.5305  146.4425  155.2806 C.3     1  UNL1        0.0017
     19 C         140.3029  145.7698  154.1848 C.3     1  UNL1        0.0001
     20 C         141.6371  145.1505  154.4787 C.3     1  UNL1        0.0017
     21 C         142.1988  145.2039  155.8685 C.3     1  UNL1        0.0196
     22 O         139.4474  140.3838  166.0700 O.3     1  UNL1       -0.4755
     23 C         138.3516  139.4138  165.7410 C.3     1  UNL1        0.2054
     24 C         138.6724  137.9641  165.5270 C.3     1  UNL1        0.0488
     25 C         139.5708  137.5535  164.3982 C.3     1  UNL1        0.0212
     26 C         141.0134  137.2401  164.6638 C.3     1  UNL1        0.0722
     27 N         142.0575  138.3014  164.4809 N.3     1  UNL1       -0.2727
     28 C         142.6388  138.7504  163.1731 C.3     1  UNL1        0.0721
     29 C         143.6442  139.8266  163.4576 C.3     1  UNL1        0.0188
     30 C         143.6843  140.0427  164.9414 C.3     1  UNL1        0.0188
     31 C         142.7037  139.1001  165.5738 C.3     1  UNL1        0.0721
@<TRIPOS>BOND
     1    10    11    2
     2    11    12   am
     3    12    16    1
     4    16    17    1
     5    17    18    1
     6    18    19    1
     7    19    20    1
     8    20    21    1
     9    11    13   am
    10    13     7    1
    11     7     8    2
    12     7     9    2
    13     7     1    1
    14     1     2   ar
    15     2     3   ar
    16     3     4   ar
    17     4    22    1
    18    22    23    1
    19    23    24    1
    20    24    25    1
    21    25    26    1
    22    26    27    1
    23    27    28    1
    24    28    29    1
    25    29    30    1
    26    30    31    1
    27     4     5   ar
    28     5     6   ar
    29    21    16    1
    30     6     1   ar
    31    31    27    1
    32    12    14    1
    33    13    15    1
@<TRIPOS>MOLECULE
*****
 31 33 0 0 0
SMALL
GASTEIGER

@<TRIPOS>ATOM
      1 C         138.6284  139.2184  163.1167 C.ar    1  UNL1        0.1255
      2 C         139.0580  138.0276  162.3121 C.ar    1  UNL1        0.0233
      3 C         139.2269  138.1477  160.8264 C.ar    1  UNL1        0.0383
      4 C         138.9661  139.4585  160.1455 C.ar    1  UNL1        0.1386
      5 C         138.5365  140.6493  160.9501 C.ar    1  UNL1        0.0383
      6 C         138.3676  140.5293  162.4357 C.ar    1  UNL1        0.0233
      7 S         138.4595  139.0983  164.6023 S.O2    1  UNL1        0.0768
      8 O         137.8164  140.4530  164.6387 O.2     1  UNL1       -0.1498
      9 O         139.1026  137.7437  164.5659 O.2     1  UNL1       -0.1498
     10 O         140.3163  140.5652  166.4464 O.2     1  UNL1       -0.2512
     11 C         139.2190  139.7117  167.0100 C.2     1  UNL1        0.3194
     12 N         139.0502  139.5916  168.4956 N.am    1  UNL1       -0.2894
     13 N         138.2906  138.9783  166.0879 N.am    1  UNL1       -0.1693
     14 H         138.3300  139.0315  168.8655 H       1  UNL1        0.1509
     15 H         137.5704  138.4181  166.4578 H       1  UNL1        0.1781
     16 C         139.9786  140.3251  169.4177 C.3     1  UNL1        0.0731
     17 C         141.3169  139.7387  169.7567 C.3     1  UNL1        0.0196
     18 C         142.2452  140.4721  170.6787 C.3     1  UNL1        0.0017
     19 C         141.8353  141.7919  171.2618 C.3     1  UNL1        0.0001
     20 C         140.4969  142.3783  170.9228 C.3     1  UNL1        0.0017
     21 C         139.5686  141.6449  170.0008 C.3     1  UNL1        0.0196
     22 O         139.1350  139.5786  158.6599 O.3     1  UNL1       -0.4755
     23 C         140.4453  139.2221  158.0227 C.3     1  UNL1        0.2054
     24 C         141.5603  140.2251  157.9890 C.3     1  UNL1        0.0488
     25 C         142.5202  140.3183  159.1379 C.3     1  UNL1        0.0212
     26 C         142.8019  139.1094  159.9798 C.3     1  UNL1        0.0722
     27 N         142.6276  139.1748  161.4682 N.3     1  UNL1       -0.2727
     28 C         142.8319  138.0424  162.4305 C.3     1  UNL1        0.0721
     29 C         142.5490  138.5519  163.8127 C.3     1  UNL1        0.0188
     30 C         142.1698  139.9991  163.7047 C.3     1  UNL1        0.0188
     31 C         142.2184  140.3841  162.2557 C.3     1  UNL1        0.0721
@<TRIPOS>BOND
     1    10    11    2
     2    11    12   am
     3    12    16    1
     4    16    17    1
     5    17    18    1
     6    18    19    1
     7    19    20    1
     8    20    21    1
     9    11    13   am
    10    13     7    1
    11     7     8    2
    12     7     9    2
    13     7     1    1
    14     1     2   ar
    15     2     3   ar
    16     3     4   ar
    17     4    22    1
    18    22    23    1
    19    23    24    1
    20    24    25    1
    21    25    26    1
    22    26    27    1
    23    27    28    1
    24    28    29    1
    25    29    30    1
    26    30    31    1
    27     4     5   ar
    28     5     6   ar
    29    21    16    1
    30     6     1   ar
    31    31    27    1
    32    12    14    1
    33    13    15    1
@<TRIPOS>MOLECULE
*****
 31 33 0 0 0
SMALL
GASTEIGER

@<TRIPOS>ATOM
      1 C         141.1342  143.6010  163.2914 C.ar    1  UNL1        0.1255
      2 C         140.3856  144.3248  164.3711 C.ar    1  UNL1        0.0233
      3 C         139.8823  143.5733  165.5678 C.ar    1  UNL1        0.0383
      4 C         140.1277  142.0982  165.6848 C.ar    1  UNL1        0.1386
      5 C         140.8763  141.3744  164.6051 C.ar    1  UNL1        0.0383
      6 C         141.3796  142.1258  163.4084 C.ar    1  UNL1        0.0233
      7 S         141.6375  144.3524  162.0947 S.O2    1  UNL1        0.0768
      8 O         142.4256  143.1488  161.6705 O.2     1  UNL1       -0.1498
      9 O         140.8493  145.5560  162.5190 O.2     1  UNL1       -0.1498
     10 O         140.0960  144.2819  159.5220 O.2     1  UNL1       -0.2512
     11 C         141.3700  145.0686  159.6117 C.2     1  UNL1        0.3194
     12 N         141.8732  145.8199  158.4150 N.am    1  UNL1       -0.2894
     13 N         142.1407  145.1038  160.8981 N.am    1  UNL1       -0.1693
     14 H         142.7094  146.3363  158.4738 H       1  UNL1        0.1509
     15 H         142.9769  145.6202  160.9569 H       1  UNL1        0.1781
     16 C         141.1025  145.7847  157.1286 C.3     1  UNL1        0.0731
     17 C         141.6083  144.9728  155.9732 C.3     1  UNL1        0.0196
     18 C         140.8376  144.9375  154.6869 C.3     1  UNL1        0.0017
     19 C         139.5610  145.7142  154.5559 C.3     1  UNL1        0.0001
     20 C         139.0552  146.5261  155.7113 C.3     1  UNL1        0.0017
     21 C         139.8259  146.5613  156.9976 C.3     1  UNL1        0.0196
     22 O         139.6244  141.3468  166.8815 O.3     1  UNL1       -0.4755
     23 C         139.4905  139.8537  166.8278 C.3     1  UNL1        0.2054
     24 C         138.3490  139.2294  166.0813 C.3     1  UNL1        0.0488
     25 C         138.4245  137.7913  165.6615 C.3     1  UNL1        0.0212
     26 C         139.5797  137.3113  164.8338 C.3     1  UNL1        0.0722
     27 N         139.6785  137.6985  163.3880 N.3     1  UNL1       -0.2727
     28 C         140.9471  137.9325  162.6226 C.3     1  UNL1        0.0721
     29 C         140.5788  138.2983  161.2153 C.3     1  UNL1        0.0188
     30 C         139.0824  138.2904  161.1109 C.3     1  UNL1        0.0188
     31 C         138.5261  137.9197  162.4537 C.3     1  UNL1        0.0721
@<TRIPOS>BOND
     1    10    11    2
     2    11    12   am
     3    12    16    1
     4    16    17    1
     5    17    18    1
     6    18    19    1
     7    19    20    1
     8    20    21    1
     9    11    13   am
    10    13     7    1
    11     7     8    2
    12     7     9    2
    13     7     1    1
    14     1     2   ar
    15     2     3   ar
    16     3     4   ar
    17     4    22    1
    18    22    23    1
    19    23    24    1
    20    24    25    1
    21    25    26    1
    22    26    27    1
    23    27    28    1
    24    28    29    1
    25    29    30    1
    26    30    31    1
    27     4     5   ar
    28     5     6   ar
    29    21    16    1
    30     6     1   ar
    31    31    27    1
    32    12    14    1
    33    13    15    1
@<TRIPOS>MOLECULE
*****
 31 33 0 0 0
SMALL
GASTEIGER

@<TRIPOS>ATOM
      1 C         141.3368  144.5449  161.0819 C.ar    1  UNL1        0.1255
      2 C         142.4599  143.5515  161.1259 C.ar    1  UNL1        0.0233
      3 C         143.2893  143.4117  162.3679 C.ar    1  UNL1        0.0383
      4 C         142.9957  144.2653  163.5659 C.ar    1  UNL1        0.1386
      5 C         141.8726  145.2586  163.5219 C.ar    1  UNL1        0.0383
      6 C         141.0432  145.3984  162.2800 C.ar    1  UNL1        0.0233
      7 S         140.5074  144.6847  159.8400 S.O2    1  UNL1        0.0768
      8 O         141.2293  143.5216  159.2269 O.2     1  UNL1       -0.1498
      9 O         139.7854  145.8478  160.4531 O.2     1  UNL1       -0.1498
     10 O         141.5542  146.2514  157.5056 O.2     1  UNL1       -0.2512
     11 C         140.2014  145.6079  157.4308 C.2     1  UNL1        0.3194
     12 N         139.3719  145.7477  156.1889 N.am    1  UNL1       -0.2894
     13 N         139.6779  144.8245  158.5981 N.am    1  UNL1       -0.1693
     14 H         138.4840  145.3253  156.1398 H       1  UNL1        0.1509
     15 H         138.7900  144.4021  158.5490 H       1  UNL1        0.1781
     16 C         139.8954  146.5311  155.0216 C.3     1  UNL1        0.0731
     17 C         140.8328  145.8854  154.0448 C.3     1  UNL1        0.0196
     18 C         141.3562  146.6687  152.8776 C.3     1  UNL1        0.0017
     19 C         140.9421  148.0978  152.6873 C.3     1  UNL1        0.0001
     20 C         140.0047  148.7435  153.6641 C.3     1  UNL1        0.0017
     21 C         139.4813  147.9602  154.8313 C.3     1  UNL1        0.0196
     22 O         143.8251  144.1255  164.8078 O.3     1  UNL1       -0.4755
     23 C         143.9875  142.7815  165.4539 C.3     1  UNL1        0.2054
     24 C         142.9546  142.2849  166.4217 C.3     1  UNL1        0.0488
     25 C         141.5015  142.5653  166.1772 C.3     1  UNL1        0.0212
     26 C         140.7617  141.8136  165.1107 C.3     1  UNL1        0.0722
     27 N         139.6661  142.4888  164.3400 N.3     1  UNL1       -0.2727
     28 C         138.7968  143.6053  164.8377 C.3     1  UNL1        0.0721
     29 C         137.8410  143.9725  163.7416 C.3     1  UNL1        0.0188
     30 C         138.1195  143.0829  162.5664 C.3     1  UNL1        0.0188
     31 C         139.2475  142.1660  162.9362 C.3     1  UNL1        0.0721
@<TRIPOS>BOND
     1    10    11    2
     2    11    12   am
     3    12    16    1
     4    16    17    1
     5    17    18    1
     6    18    19    1
     7    19    20    1
     8    20    21    1
     9    11    13   am
    10    13     7    1
    11     7     8    2
    12     7     9    2
    13     7     1    1
    14     1     2   ar
    15     2     3   ar
    16     3     4   ar
    17     4    22    1
    18    22    23    1
    19    23    24    1
    20    24    25    1
    21    25    26    1
    22    26    27    1
    23    27    28    1
    24    28    29    1
    25    29    30    1
    26    30    31    1
    27     4     5   ar
    28     5     6   ar
    29    21    16    1
    30     6     1   ar
    31    31    27    1
    32    12    14    1
    33    13    15    1
@<TRIPOS>MOLECULE
*****
 31 33 0 0 0
SMALL
GASTEIGER

@<TRIPOS>ATOM
      1 C         139.1962  139.2287  162.8937 C.ar    1  UNL1        0.1255
      2 C         137.8074  139.2409  162.3272 C.ar    1  UNL1        0.0233
      3 C         137.6024  139.3639  160.8464 C.ar    1  UNL1        0.0383
      4 C         138.7863  139.4748  159.9320 C.ar    1  UNL1        0.1386
      5 C         140.1752  139.4626  160.4985 C.ar    1  UNL1        0.0383
      6 C         140.3802  139.3396  161.9793 C.ar    1  UNL1        0.0233
      7 S         139.4012  139.1057  164.3745 S.O2    1  UNL1        0.0768
      8 O         140.6633  138.3311  164.1355 O.2     1  UNL1       -0.1498
      9 O         138.1391  139.8803  164.6136 O.2     1  UNL1       -0.1498
     10 O         140.8978  141.2369  165.8639 O.2     1  UNL1       -0.2512
     11 C         140.3545  140.0483  166.6000 C.2     1  UNL1        0.3194
     12 N         140.5594  139.9253  168.0808 N.am    1  UNL1       -0.2894
     13 N         139.6062  138.9827  165.8553 N.am    1  UNL1       -0.1693
     14 H         140.2028  139.1451  168.5640 H       1  UNL1        0.1509
     15 H         139.2496  138.2025  166.3385 H       1  UNL1        0.1781
     16 C         141.3077  140.9909  168.8255 C.3     1  UNL1        0.0731
     17 C         140.6023  142.2441  169.2519 C.3     1  UNL1        0.0196
     18 C         141.3506  143.3096  169.9966 C.3     1  UNL1        0.0017
     19 C         142.8044  143.1220  170.3149 C.3     1  UNL1        0.0001
     20 C         143.5099  141.8689  169.8884 C.3     1  UNL1        0.0017
     21 C         142.7615  140.8033  169.1438 C.3     1  UNL1        0.0196
     22 O         138.5814  139.5978  158.4512 O.3     1  UNL1       -0.4755
     23 C         138.8803  140.8939  157.7578 C.3     1  UNL1        0.2054
     24 C         138.3264  142.1788  158.2983 C.3     1  UNL1        0.0488
     25 C         139.2524  143.2200  158.8538 C.3     1  UNL1        0.0212
     26 C         140.0539  142.9293  160.0879 C.3     1  UNL1        0.0722
     27 N         139.4071  143.0111  161.4388 N.3     1  UNL1       -0.2727
     28 C         137.9432  142.8547  161.7264 C.3     1  UNL1        0.0721
     29 C         137.7420  143.0107  163.2046 C.3     1  UNL1        0.0188
     30 C         139.0814  143.2636  163.8307 C.3     1  UNL1        0.0188
     31 C         140.1105  143.2638  162.7393 C.3     1  UNL1        0.0721
@<TRIPOS>BOND
     1    10    11    2
     2    11    12   am
     3    12    16    1
     4    16    17    1
     5    17    18    1
     6    18    19    1
     7    19    20    1
     8    20    21    1
     9    11    13   am
    10    13     7    1
    11     7     8    2
    12     7     9    2
    13     7     1    1
    14     1     2   ar
    15     2     3   ar
    16     3     4   ar
    17     4    22    1
    18    22    23    1
    19    23    24    1
    20    24    25    1
    21    25    26    1
    22    26    27    1
    23    27    28    1
    24    28    29    1
    25    29    30    1
    26    30    31    1
    27     4     5   ar
    28     5     6   ar
    29    21    16    1
    30     6     1   ar
    31    31    27    1
    32    12    14    1
    33    13    15    1
