@<TRIPOS>MOLECULE
*****
 28 31 0 0 0
SMALL
GASTEIGER

@<TRIPOS>ATOM
      1 C         139.1534  141.6280  164.6267 C.ar    1  UNL1        0.0681
      2 C         137.9610  142.4828  164.3143 C.ar    1  UNL1        0.0208
      3 C         137.6770  142.8848  162.8974 C.ar    1  UNL1        0.0384
      4 C         138.5853  142.4321  161.7929 C.ar    1  UNL1        0.1386
      5 C         139.7777  141.5773  162.1053 C.ar    1  UNL1        0.0384
      6 C         140.0617  141.1753  163.5222 C.ar    1  UNL1        0.0208
      7 C         138.9481  139.9058  166.5611 C.ar    1  UNL1        0.1263
      8 N         139.2321  139.5037  167.9780 N.ar    1  UNL1       -0.2319
      9 C         140.0055  140.4218  168.8775 C.ar    1  UNL1        0.0872
     10 C         140.2895  140.0198  170.2944 C.ar    1  UNL1        0.0193
     11 C         141.0628  140.9379  171.1939 C.ar    1  UNL1        0.0015
     12 C         141.5521  142.2580  170.6764 C.ar    1  UNL1        0.0003
     13 C         141.2681  142.6601  169.2595 C.ar    1  UNL1        0.0063
     14 C         140.4948  141.7420  168.3601 C.ar    1  UNL1        0.0742
     15 C         140.2108  142.1440  166.9431 C.ar    1  UNL1        0.2669
     16 O         140.7001  143.4642  166.4256 O.2     1  UNL1       -0.2665
     17 N         139.4374  141.2260  166.0436 N.ar    1  UNL1       -0.2626
     18 C         138.8486  137.7969  165.0469 C.3     1  UNL1        0.0084
     19 C         138.1748  138.9877  165.6616 C.3     1  UNL1        0.0644
     20 O         138.3013  142.8341  160.3759 O.3     1  UNL1       -0.4754
     21 C         139.4207  142.9165  159.3809 C.3     1  UNL1        0.2068
     22 C         139.8749  144.2523  158.8718 C.3     1  UNL1        0.0646
     23 C         141.0377  144.9454  159.5181 C.3     1  UNL1        0.0759
     24 N         141.2000  144.9064  161.0087 N.3     1  UNL1       -0.2726
     25 C         142.2859  144.1936  161.7590 C.3     1  UNL1        0.0721
     26 C         142.0621  144.4199  163.2249 C.3     1  UNL1        0.0188
     27 C         140.8377  145.2725  163.3806 C.3     1  UNL1        0.0188
     28 C         140.3050  145.5732  162.0109 C.3     1  UNL1        0.0721
@<TRIPOS>BOND
     1    18    19    1
     2    19     7    1
     3     7     8   ar
     4     8     9   ar
     5     9    10   ar
     6    10    11   ar
     7    11    12   ar
     8    12    13   ar
     9    13    14   ar
    10    14    15   ar
    11    15    16    2
    12    15    17   ar
    13    17     1    1
    14     1     2   ar
    15     2     3   ar
    16     3     4   ar
    17     4    20    1
    18    20    21    1
    19    21    22    1
    20    22    23    1
    21    23    24    1
    22    24    25    1
    23    25    26    1
    24    26    27    1
    25    27    28    1
    26     4     5   ar
    27     5     6   ar
    28    17     7   ar
    29     6     1   ar
    30    14     9   ar
    31    28    24    1
@<TRIPOS>MOLECULE
*****
 28 31 0 0 0
SMALL
GASTEIGER

@<TRIPOS>ATOM
      1 C         139.5389  141.5228  164.6975 C.ar    1  UNL1        0.0681
      2 C         140.4175  141.3572  163.4931 C.ar    1  UNL1        0.0208
      3 C         139.9222  141.7752  162.1404 C.ar    1  UNL1        0.0384
      4 C         138.5485  142.3588  161.9921 C.ar    1  UNL1        0.1386
      5 C         137.6699  142.5244  163.1965 C.ar    1  UNL1        0.0384
      6 C         138.1651  142.1064  164.5493 C.ar    1  UNL1        0.0208
      7 C         139.3329  140.0117  166.8009 C.ar    1  UNL1        0.1263
      8 N         139.8281  139.5936  168.1537 N.ar    1  UNL1       -0.2319
      9 C         141.0247  140.2686  168.7559 C.ar    1  UNL1        0.0872
     10 C         141.5200  139.8505  170.1086 C.ar    1  UNL1        0.0193
     11 C         142.7165  140.5255  170.7107 C.ar    1  UNL1        0.0015
     12 C         143.4178  141.6186  169.9601 C.ar    1  UNL1        0.0003
     13 C         142.9226  142.0367  168.6074 C.ar    1  UNL1        0.0063
     14 C         141.7261  141.3617  168.0053 C.ar    1  UNL1        0.0742
     15 C         141.2308  141.7797  166.6525 C.ar    1  UNL1        0.2669
     16 O         141.9321  142.8728  165.9019 O.2     1  UNL1       -0.2665
     17 N         140.0342  141.1047  166.0503 N.ar    1  UNL1       -0.2626
     18 C         137.7109  137.9851  166.6908 C.3     1  UNL1        0.0084
     19 C         138.1363  139.3367  166.1987 C.3     1  UNL1        0.0644
     20 O         138.0532  142.7769  160.6393 O.3     1  UNL1       -0.4754
     21 C         138.3909  141.9557  159.4303 C.3     1  UNL1        0.2068
     22 C         137.9302  140.5312  159.3386 C.3     1  UNL1        0.0646
     23 C         138.9243  139.4131  159.4457 C.3     1  UNL1        0.0759
     24 N         139.1481  138.7322  160.7633 N.3     1  UNL1       -0.2726
     25 C         138.0939  138.4150  161.7823 C.3     1  UNL1        0.0721
     26 C         138.7596  137.7357  162.9421 C.3     1  UNL1        0.0188
     27 C         140.2253  137.6329  162.6401 C.3     1  UNL1        0.0188
     28 C         140.4654  138.2488  161.2935 C.3     1  UNL1        0.0721
@<TRIPOS>BOND
     1    18    19    1
     2    19     7    1
     3     7     8   ar
     4     8     9   ar
     5     9    10   ar
     6    10    11   ar
     7    11    12   ar
     8    12    13   ar
     9    13    14   ar
    10    14    15   ar
    11    15    16    2
    12    15    17   ar
    13    17     1    1
    14     1     2   ar
    15     2     3   ar
    16     3     4   ar
    17     4    20    1
    18    20    21    1
    19    21    22    1
    20    22    23    1
    21    23    24    1
    22    24    25    1
    23    25    26    1
    24    26    27    1
    25    27    28    1
    26     4     5   ar
    27     5     6   ar
    28    17     7   ar
    29     6     1   ar
    30    14     9   ar
    31    28    24    1
@<TRIPOS>MOLECULE
*****
 28 31 0 0 0
SMALL
GASTEIGER

@<TRIPOS>ATOM
      1 C         140.6170  139.0857  165.0034 C.ar    1  UNL1        0.0681
      2 C         141.0206  137.6668  164.7318 C.ar    1  UNL1        0.0208
      3 C         141.2007  137.1956  163.3192 C.ar    1  UNL1        0.0384
      4 C         140.9771  138.1433  162.1782 C.ar    1  UNL1        0.1386
      5 C         140.5735  139.5622  162.4498 C.ar    1  UNL1        0.0384
      6 C         140.3935  140.0334  163.8624 C.ar    1  UNL1        0.0208
      7 C         139.1217  139.3613  167.1101 C.ar    1  UNL1        0.1263
      8 N         138.9416  139.8324  168.5227 N.ar    1  UNL1       -0.2319
      9 C         140.0769  140.4993  169.2414 C.ar    1  UNL1        0.0872
     10 C         139.8968  140.9705  170.6540 C.ar    1  UNL1        0.0193
     11 C         141.0321  141.6374  171.3726 C.ar    1  UNL1        0.0015
     12 C         142.3474  141.8330  170.6786 C.ar    1  UNL1        0.0003
     13 C         142.5275  141.3619  169.2660 C.ar    1  UNL1        0.0063
     14 C         141.3922  140.6950  168.5474 C.ar    1  UNL1        0.0742
     15 C         141.5722  140.2238  167.1347 C.ar    1  UNL1        0.2669
     16 O         142.8876  140.4195  166.4407 O.2     1  UNL1       -0.2665
     17 N         140.4370  139.5569  166.4161 N.ar    1  UNL1       -0.2626
     18 C         137.7025  137.2400  166.6241 C.3     1  UNL1        0.0084
     19 C         137.9864  138.6944  166.3914 C.3     1  UNL1        0.0644
     20 O         141.1571  137.6721  160.7655 O.3     1  UNL1       -0.4754
     21 C         141.9074  138.5203  159.7818 C.3     1  UNL1        0.2068
     22 C         143.3477  138.8586  160.0284 C.3     1  UNL1        0.0646
     23 C         143.7252  140.2300  160.5048 C.3     1  UNL1        0.0759
     24 N         144.3648  140.4070  161.8499 N.3     1  UNL1       -0.2726
     25 C         145.1104  141.6213  162.3187 C.3     1  UNL1        0.0721
     26 C         145.5777  141.3657  163.7210 C.3     1  UNL1        0.0188
     27 C         145.1208  139.9934  164.1189 C.3     1  UNL1        0.0188
     28 C         144.3712  139.4010  162.9625 C.3     1  UNL1        0.0721
@<TRIPOS>BOND
     1    18    19    1
     2    19     7    1
     3     7     8   ar
     4     8     9   ar
     5     9    10   ar
     6    10    11   ar
     7    11    12   ar
     8    12    13   ar
     9    13    14   ar
    10    14    15   ar
    11    15    16    2
    12    15    17   ar
    13    17     1    1
    14     1     2   ar
    15     2     3   ar
    16     3     4   ar
    17     4    20    1
    18    20    21    1
    19    21    22    1
    20    22    23    1
    21    23    24    1
    22    24    25    1
    23    25    26    1
    24    26    27    1
    25    27    28    1
    26     4     5   ar
    27     5     6   ar
    28    17     7   ar
    29     6     1   ar
    30    14     9   ar
    31    28    24    1
@<TRIPOS>MOLECULE
*****
 28 31 0 0 0
SMALL
GASTEIGER

@<TRIPOS>ATOM
      1 C         140.0266  139.0830  164.9456 C.ar    1  UNL1        0.0681
      2 C         139.4108  139.9926  163.9242 C.ar    1  UNL1        0.0208
      3 C         139.2833  139.5428  162.4989 C.ar    1  UNL1        0.0384
      4 C         139.7717  138.1833  162.0951 C.ar    1  UNL1        0.1386
      5 C         140.3875  137.2736  163.1165 C.ar    1  UNL1        0.0384
      6 C         140.5149  137.7234  164.5417 C.ar    1  UNL1        0.0208
      7 C         138.9966  139.3784  167.3124 C.ar    1  UNL1        0.1263
      8 N         139.1239  139.8282  168.7376 N.ar    1  UNL1       -0.2319
      9 C         140.4088  140.4326  169.2214 C.ar    1  UNL1        0.0872
     10 C         140.5362  140.8825  170.6467 C.ar    1  UNL1        0.0193
     11 C         141.8210  141.4868  171.1304 C.ar    1  UNL1        0.0015
     12 C         142.9784  141.6413  170.1888 C.ar    1  UNL1        0.0003
     13 C         142.8510  141.1914  168.7636 C.ar    1  UNL1        0.0063
     14 C         141.5662  140.5871  168.2799 C.ar    1  UNL1        0.0742
     15 C         141.4388  140.1372  166.8546 C.ar    1  UNL1        0.2669
     16 O         142.5962  140.2917  165.9130 O.2     1  UNL1       -0.2665
     17 N         140.1540  139.5329  166.3709 N.ar    1  UNL1       -0.2626
     18 C         137.5073  137.2898  166.9003 C.3     1  UNL1        0.0084
     19 C         137.7117  138.7740  166.8286 C.3     1  UNL1        0.0644
     20 O         139.6443  137.7334  160.6698 O.3     1  UNL1       -0.4754
     21 C         139.7228  138.7361  159.5569 C.3     1  UNL1        0.2068
     22 C         140.8495  138.6732  158.5688 C.3     1  UNL1        0.0646
     23 C         142.1617  139.3277  158.8848 C.3     1  UNL1        0.0759
     24 N         142.7244  139.2483  160.2729 N.3     1  UNL1       -0.2726
     25 C         143.3896  138.0526  160.8876 C.3     1  UNL1        0.0721
     26 C         143.7971  138.4159  162.2848 C.3     1  UNL1        0.0188
     27 C         143.3836  139.8362  162.5336 C.3     1  UNL1        0.0188
     28 C         142.7207  140.3507  161.2902 C.3     1  UNL1        0.0721
@<TRIPOS>BOND
     1    18    19    1
     2    19     7    1
     3     7     8   ar
     4     8     9   ar
     5     9    10   ar
     6    10    11   ar
     7    11    12   ar
     8    12    13   ar
     9    13    14   ar
    10    14    15   ar
    11    15    16    2
    12    15    17   ar
    13    17     1    1
    14     1     2   ar
    15     2     3   ar
    16     3     4   ar
    17     4    20    1
    18    20    21    1
    19    21    22    1
    20    22    23    1
    21    23    24    1
    22    24    25    1
    23    25    26    1
    24    26    27    1
    25    27    28    1
    26     4     5   ar
    27     5     6   ar
    28    17     7   ar
    29     6     1   ar
    30    14     9   ar
    31    28    24    1
@<TRIPOS>MOLECULE
*****
 28 31 0 0 0
SMALL
GASTEIGER

@<TRIPOS>ATOM
      1 C         140.9807  139.5711  164.7986 C.ar    1  UNL1        0.0681
      2 C         140.0516  138.3937  164.7798 C.ar    1  UNL1        0.0208
      3 C         139.5799  137.8312  163.4718 C.ar    1  UNL1        0.0384
      4 C         140.0373  138.4463  162.1824 C.ar    1  UNL1        0.1386
      5 C         140.9664  139.6238  162.2012 C.ar    1  UNL1        0.0384
      6 C         141.4381  140.1862  163.5092 C.ar    1  UNL1        0.0208
      7 C         142.6443  139.5359  166.7939 C.ar    1  UNL1        0.1263
      8 N         143.1160  140.0982  168.1020 N.ar    1  UNL1       -0.2319
      9 C         142.3958  141.2583  168.7231 C.ar    1  UNL1        0.0872
     10 C         142.8675  141.8206  170.0312 C.ar    1  UNL1        0.0193
     11 C         142.1473  142.9806  170.6522 C.ar    1  UNL1        0.0015
     12 C         140.9553  143.5782  169.9651 C.ar    1  UNL1        0.0003
     13 C         140.4836  143.0159  168.6570 C.ar    1  UNL1        0.0063
     14 C         141.2039  141.8559  168.0360 C.ar    1  UNL1        0.0742
     15 C         140.7321  141.2935  166.7278 C.ar    1  UNL1        0.2669
     16 O         139.5402  141.8911  166.0407 O.2     1  UNL1       -0.2665
     17 N         141.4524  140.1335  166.1068 N.ar    1  UNL1       -0.2626
     18 C         144.4461  138.6186  165.1622 C.3     1  UNL1        0.0084
     19 C         143.3646  138.3759  166.1728 C.3     1  UNL1        0.0644
     20 O         139.5655  137.8839  160.8742 O.3     1  UNL1       -0.4754
     21 C         139.4539  138.7738  159.6719 C.3     1  UNL1        0.2068
     22 C         138.3375  139.7713  159.5782 C.3     1  UNL1        0.0646
     23 C         137.4212  139.9834  160.7468 C.3     1  UNL1        0.0759
     24 N         137.6055  141.1761  161.6375 N.3     1  UNL1       -0.2726
     25 C         137.3289  141.2273  163.1110 C.3     1  UNL1        0.0721
     26 C         137.6512  142.6098  163.5954 C.3     1  UNL1        0.0188
     27 C         138.1270  143.4132  162.4214 C.3     1  UNL1        0.0188
     28 C         138.0988  142.5270  161.2114 C.3     1  UNL1        0.0721
@<TRIPOS>BOND
     1    18    19    1
     2    19     7    1
     3     7     8   ar
     4     8     9   ar
     5     9    10   ar
     6    10    11   ar
     7    11    12   ar
     8    12    13   ar
     9    13    14   ar
    10    14    15   ar
    11    15    16    2
    12    15    17   ar
    13    17     1    1
    14     1     2   ar
    15     2     3   ar
    16     3     4   ar
    17     4    20    1
    18    20    21    1
    19    21    22    1
    20    22    23    1
    21    23    24    1
    22    24    25    1
    23    25    26    1
    24    26    27    1
    25    27    28    1
    26     4     5   ar
    27     5     6   ar
    28    17     7   ar
    29     6     1   ar
    30    14     9   ar
    31    28    24    1
@<TRIPOS>MOLECULE
*****
 28 31 0 0 0
SMALL
GASTEIGER

@<TRIPOS>ATOM
      1 C         140.8453  139.6278  163.7693 C.ar    1  UNL1        0.0681
      2 C         140.3003  138.3882  163.1240 C.ar    1  UNL1        0.0208
      3 C         139.9758  138.3857  161.6595 C.ar    1  UNL1        0.0384
      4 C         140.1963  139.6228  160.8404 C.ar    1  UNL1        0.1386
      5 C         140.7413  140.8624  161.4857 C.ar    1  UNL1        0.0384
      6 C         141.0658  140.8649  162.9501 C.ar    1  UNL1        0.0208
      7 C         142.5592  139.3031  165.6947 C.ar    1  UNL1        0.1263
      8 N         142.8837  139.3056  167.1591 N.ar    1  UNL1       -0.2319
      9 C         141.8188  139.6352  168.1628 C.ar    1  UNL1        0.0872
     10 C         142.1433  139.6377  169.6272 C.ar    1  UNL1        0.0193
     11 C         141.0784  139.9674  170.6308 C.ar    1  UNL1        0.0015
     12 C         139.6889  140.2946  170.1699 C.ar    1  UNL1        0.0003
     13 C         139.3644  140.2921  168.7055 C.ar    1  UNL1        0.0063
     14 C         140.4293  139.9624  167.7019 C.ar    1  UNL1        0.0742
     15 C         140.1048  139.9600  166.2374 C.ar    1  UNL1        0.2669
     16 O         138.7154  140.2872  165.7765 O.2     1  UNL1       -0.2665
     17 N         141.1698  139.6303  165.2338 N.ar    1  UNL1       -0.2626
     18 C         144.7343  139.9473  164.4281 C.3     1  UNL1        0.0084
     19 C         143.6242  138.9734  164.6910 C.3     1  UNL1        0.0644
     20 O         139.8718  139.6203  159.3758 O.3     1  UNL1       -0.4754
     21 C         139.9828  138.3504  158.5853 C.3     1  UNL1        0.2068
     22 C         140.9531  138.2591  157.4450 C.3     1  UNL1        0.0646
     23 C         142.3802  137.8764  157.7035 C.3     1  UNL1        0.0759
     24 N         143.0190  138.2078  159.0196 N.3     1  UNL1       -0.2726
     25 C         143.5994  139.5352  159.4086 C.3     1  UNL1        0.0721
     26 C         144.1287  139.4177  160.8072 C.3     1  UNL1        0.0188
     27 C         143.8754  138.0178  161.2827 C.3     1  UNL1        0.0188
     28 C         143.1896  137.2700  160.1778 C.3     1  UNL1        0.0721
@<TRIPOS>BOND
     1    18    19    1
     2    19     7    1
     3     7     8   ar
     4     8     9   ar
     5     9    10   ar
     6    10    11   ar
     7    11    12   ar
     8    12    13   ar
     9    13    14   ar
    10    14    15   ar
    11    15    16    2
    12    15    17   ar
    13    17     1    1
    14     1     2   ar
    15     2     3   ar
    16     3     4   ar
    17     4    20    1
    18    20    21    1
    19    21    22    1
    20    22    23    1
    21    23    24    1
    22    24    25    1
    23    25    26    1
    24    26    27    1
    25    27    28    1
    26     4     5   ar
    27     5     6   ar
    28    17     7   ar
    29     6     1   ar
    30    14     9   ar
    31    28    24    1
@<TRIPOS>MOLECULE
*****
 28 31 0 0 0
SMALL
GASTEIGER

@<TRIPOS>ATOM
      1 C         139.0993  140.0744  164.7882 C.ar    1  UNL1        0.0681
      2 C         139.6067  138.9979  163.8751 C.ar    1  UNL1        0.0208
      3 C         139.0677  138.8821  162.4801 C.ar    1  UNL1        0.0384
      4 C         138.0214  139.8428  161.9982 C.ar    1  UNL1        0.1386
      5 C         137.5141  140.9193  162.9113 C.ar    1  UNL1        0.0384
      6 C         138.0530  141.0351  164.3063 C.ar    1  UNL1        0.0208
      7 C         138.9214  139.5268  167.3217 C.ar    1  UNL1        0.1263
      8 N         139.4604  139.6426  168.7167 N.ar    1  UNL1       -0.2319
      9 C         140.7162  140.4218  168.9734 C.ar    1  UNL1        0.0872
     10 C         141.2551  140.5375  170.3684 C.ar    1  UNL1        0.0193
     11 C         142.5109  141.3167  170.6250 C.ar    1  UNL1        0.0015
     12 C         143.2278  141.9801  169.4866 C.ar    1  UNL1        0.0003
     13 C         142.6889  141.8643  168.0915 C.ar    1  UNL1        0.0063
     14 C         141.4331  141.0852  167.8350 C.ar    1  UNL1        0.0742
     15 C         140.8941  140.9694  166.4399 C.ar    1  UNL1        0.2669
     16 O         141.6109  141.6328  165.3015 O.2     1  UNL1       -0.2665
     17 N         139.6383  140.1902  166.1833 N.ar    1  UNL1       -0.2626
     18 C         137.7476  137.3103  166.6442 C.3     1  UNL1        0.0084
     19 C         137.6656  138.7476  167.0651 C.3     1  UNL1        0.0644
     20 O         137.4824  139.7270  160.6031 O.3     1  UNL1       -0.4754
     21 C         138.1237  140.4946  159.4853 C.3     1  UNL1        0.2068
     22 C         138.3985  141.9606  159.6432 C.3     1  UNL1        0.0646
     23 C         139.7674  142.4287  160.0395 C.3     1  UNL1        0.0759
     24 N         139.9210  143.5448  161.0298 N.3     1  UNL1       -0.2726
     25 C         138.9104  143.9551  162.0596 C.3     1  UNL1        0.0721
     26 C         139.4769  145.1104  162.8304 C.3     1  UNL1        0.0188
     27 C         140.8377  145.4142  162.2771 C.3     1  UNL1        0.0188
     28 C         141.1121  144.4465  161.1642 C.3     1  UNL1        0.0721
@<TRIPOS>BOND
     1    18    19    1
     2    19     7    1
     3     7     8   ar
     4     8     9   ar
     5     9    10   ar
     6    10    11   ar
     7    11    12   ar
     8    12    13   ar
     9    13    14   ar
    10    14    15   ar
    11    15    16    2
    12    15    17   ar
    13    17     1    1
    14     1     2   ar
    15     2     3   ar
    16     3     4   ar
    17     4    20    1
    18    20    21    1
    19    21    22    1
    20    22    23    1
    21    23    24    1
    22    24    25    1
    23    25    26    1
    24    26    27    1
    25    27    28    1
    26     4     5   ar
    27     5     6   ar
    28    17     7   ar
    29     6     1   ar
    30    14     9   ar
    31    28    24    1
@<TRIPOS>MOLECULE
*****
 28 31 0 0 0
SMALL
GASTEIGER

@<TRIPOS>ATOM
      1 C         141.3979  142.0173  164.2510 C.ar    1  UNL1        0.0681
      2 C         140.5884  143.1095  163.6170 C.ar    1  UNL1        0.0208
      3 C         140.2258  143.0272  162.1638 C.ar    1  UNL1        0.0384
      4 C         140.6727  141.8528  161.3447 C.ar    1  UNL1        0.1386
      5 C         141.4822  140.7607  161.9787 C.ar    1  UNL1        0.0384
      6 C         141.8448  140.8429  163.4319 C.ar    1  UNL1        0.0208
      7 C         143.1181  142.5901  166.1119 C.ar    1  UNL1        0.1263
      8 N         143.4807  142.6725  167.5650 N.ar    1  UNL1       -0.2319
      9 C         142.4856  142.2643  168.6107 C.ar    1  UNL1        0.0872
     10 C         142.8482  142.3467  170.0638 C.ar    1  UNL1        0.0193
     11 C         141.8531  141.9386  171.1093 C.ar    1  UNL1        0.0015
     12 C         140.4954  141.4481  170.7017 C.ar    1  UNL1        0.0003
     13 C         140.1328  141.3657  169.2486 C.ar    1  UNL1        0.0063
     14 C         141.1279  141.7739  168.2030 C.ar    1  UNL1        0.0742
     15 C         140.7653  141.6915  166.7498 C.ar    1  UNL1        0.2669
     16 O         139.4077  141.2011  166.3422 O.2     1  UNL1       -0.2665
     17 N         141.7604  142.0997  165.7043 N.ar    1  UNL1       -0.2626
     18 C         144.0555  144.3746  164.4726 C.3     1  UNL1        0.0084
     19 C         144.1132  142.9983  165.0662 C.3     1  UNL1        0.0644
     20 O         140.3101  141.7704  159.8915 O.3     1  UNL1       -0.4754
     21 C         138.8701  141.6780  159.4818 C.3     1  UNL1        0.2068
     22 C         138.1956  140.3403  159.4085 C.3     1  UNL1        0.0646
     23 C         137.4099  139.8312  160.5805 C.3     1  UNL1        0.0759
     24 N         138.1186  139.1929  161.7382 N.3     1  UNL1       -0.2726
     25 C         138.9829  137.9684  161.6764 C.3     1  UNL1        0.0721
     26 C         139.4858  137.6856  163.0610 C.3     1  UNL1        0.0188
     27 C         138.9324  138.7353  163.9786 C.3     1  UNL1        0.0188
     28 C         138.0874  139.6669  163.1610 C.3     1  UNL1        0.0721
@<TRIPOS>BOND
     1    18    19    1
     2    19     7    1
     3     7     8   ar
     4     8     9   ar
     5     9    10   ar
     6    10    11   ar
     7    11    12   ar
     8    12    13   ar
     9    13    14   ar
    10    14    15   ar
    11    15    16    2
    12    15    17   ar
    13    17     1    1
    14     1     2   ar
    15     2     3   ar
    16     3     4   ar
    17     4    20    1
    18    20    21    1
    19    21    22    1
    20    22    23    1
    21    23    24    1
    22    24    25    1
    23    25    26    1
    24    26    27    1
    25    27    28    1
    26     4     5   ar
    27     5     6   ar
    28    17     7   ar
    29     6     1   ar
    30    14     9   ar
    31    28    24    1
@<TRIPOS>MOLECULE
*****
 28 31 0 0 0
SMALL
GASTEIGER

@<TRIPOS>ATOM
      1 C         142.3902  142.1024  163.8682 C.ar    1  UNL1        0.0681
      2 C         143.1118  143.4109  163.7376 C.ar    1  UNL1        0.0208
      3 C         143.2008  144.0883  162.4023 C.ar    1  UNL1        0.0384
      4 C         142.5682  143.4571  161.1975 C.ar    1  UNL1        0.1386
      5 C         141.8467  142.1486  161.3282 C.ar    1  UNL1        0.0384
      6 C         141.7576  141.4712  162.6635 C.ar    1  UNL1        0.0208
      7 C         143.1578  140.2290  165.4966 C.ar    1  UNL1        0.1263
      8 N         143.0689  139.5517  166.8319 N.ar    1  UNL1       -0.2319
      9 C         142.1232  140.0704  167.8745 C.ar    1  UNL1        0.0872
     10 C         142.0343  139.3930  169.2099 C.ar    1  UNL1        0.0193
     11 C         141.0887  139.9117  170.2524 C.ar    1  UNL1        0.0015
     12 C         140.2321  141.1077  169.9595 C.ar    1  UNL1        0.0003
     13 C         140.3211  141.7850  168.6241 C.ar    1  UNL1        0.0063
     14 C         141.2666  141.2664  167.5816 C.ar    1  UNL1        0.0742
     15 C         141.3556  141.9437  166.2462 C.ar    1  UNL1        0.2669
     16 O         140.4990  143.1397  165.9533 O.2     1  UNL1       -0.2665
     17 N         142.3012  141.4250  165.2037 N.ar    1  UNL1       -0.2626
     18 C         145.3456  140.4812  164.1180 C.3     1  UNL1        0.0084
     19 C         144.1034  139.7104  164.4540 C.3     1  UNL1        0.0644
     20 O         142.6572  144.1344  159.8621 O.3     1  UNL1       -0.4754
     21 C         141.4968  144.9336  159.3477 C.3     1  UNL1        0.2068
     22 C         140.1069  144.6287  159.8223 C.3     1  UNL1        0.0646
     23 C         139.6192  145.1902  161.1249 C.3     1  UNL1        0.0759
     24 N         138.8323  144.3270  162.0660 N.3     1  UNL1       -0.2726
     25 C         138.2395  142.9867  161.7463 C.3     1  UNL1        0.0721
     26 C         137.5409  142.4838  162.9748 C.3     1  UNL1        0.0188
     27 C         137.7020  143.5133  164.0538 C.3     1  UNL1        0.0188
     28 C         138.5002  144.6525  163.4922 C.3     1  UNL1        0.0721
@<TRIPOS>BOND
     1    18    19    1
     2    19     7    1
     3     7     8   ar
     4     8     9   ar
     5     9    10   ar
     6    10    11   ar
     7    11    12   ar
     8    12    13   ar
     9    13    14   ar
    10    14    15   ar
    11    15    16    2
    12    15    17   ar
    13    17     1    1
    14     1     2   ar
    15     2     3   ar
    16     3     4   ar
    17     4    20    1
    18    20    21    1
    19    21    22    1
    20    22    23    1
    21    23    24    1
    22    24    25    1
    23    25    26    1
    24    26    27    1
    25    27    28    1
    26     4     5   ar
    27     5     6   ar
    28    17     7   ar
    29     6     1   ar
    30    14     9   ar
    31    28    24    1
