@<TRIPOS>MOLECULE
*****
 32 33 0 0 0
SMALL
GASTEIGER

@<TRIPOS>ATOM
      1 C         143.5440  143.1710  163.9715 C.ar    1  UNL1        0.0730
      2 C         142.5503  144.2939  164.0134 C.ar    1  UNL1        0.0322
      3 C         141.9365  144.8002  162.7418 C.ar    1  UNL1        0.0654
      4 C         142.3164  144.1836  161.4282 C.ar    1  UNL1        0.1133
      5 N         143.3100  143.0607  161.3863 N.ar    1  UNL1       -0.2367
      6 C         143.9238  142.5544  162.6578 C.ar    1  UNL1        0.1476
      7 C         144.9175  141.4315  162.6158 C.2     1  UNL1        0.2617
      8 N         144.5815  140.1592  161.8959 N.am    1  UNL1       -0.3240
      9 O         146.2472  141.5810  163.2938 O.2     1  UNL1       -0.2687
     10 H         143.7087  140.0611  161.4510 H       1  UNL1        0.1453
     11 H         145.2336  139.4222  161.8684 H       1  UNL1        0.1453
     12 N         144.1577  142.6647  165.2430 N.pl3   1  UNL1       -0.2966
     13 H         145.1371  142.6218  165.3338 H       1  UNL1        0.1537
     14 C         140.1409  139.8768  167.0015 C.3     1  UNL1        0.0312
     15 C         141.2709  140.8299  167.2554 C.ar    1  UNL1       -0.0179
     16 C         141.5226  141.3423  168.6426 C.ar    1  UNL1        0.0106
     17 C         142.6526  142.2954  168.8965 C.ar    1  UNL1        0.0605
     18 C         142.9043  142.8077  170.2837 C.3     1  UNL1        0.0521
     19 N         143.5310  142.7362  167.7634 N.ar    1  UNL1       -0.2349
     20 C         143.2793  142.2239  166.3763 C.ar    1  UNL1        0.1315
     21 C         142.1493  141.2708  166.1223 C.ar    1  UNL1        0.0301
     22 N         140.9429  145.9231  162.7838 N.pl3   1  UNL1       -0.3303
     23 H         141.2122  146.8063  163.1253 H       1  UNL1        0.1469
     24 C         139.5387  145.7003  162.3054 C.3     1  UNL1        0.1029
     25 C         138.6419  144.7425  163.0322 C.3     1  UNL1        0.0763
     26 N         137.7371  143.8288  162.2596 N.3     1  UNL1       -0.3207
     27 H         137.8611  143.9926  161.2605 H       1  UNL1        0.1189
     28 H         136.7675  144.0134  162.5167 H       1  UNL1        0.1189
     29 C         138.6497  144.6983  164.5315 C.3     1  UNL1        0.0895
     30 C         139.2196  143.5075  165.2438 C.3     1  UNL1        0.3200
     31 F         139.9237  143.6849  166.5564 F       1  UNL1       -0.1984
     32 F         139.0853  142.1394  164.6435 F       1  UNL1       -0.1984
@<TRIPOS>BOND
     1    14    15    1
     2    15    16   ar
     3    16    17   ar
     4    17    18    1
     5    17    19   ar
     6    19    20   ar
     7    20    12    1
     8    12     1    1
     9     1     2   ar
    10     2     3   ar
    11     3    22    1
    12    22    24    1
    13    24    25    1
    14    25    26    1
    15    25    29    1
    16    29    30    1
    17    30    31    1
    18    30    32    1
    19     3     4   ar
    20     4     5   ar
    21     5     6   ar
    22     6     7    1
    23     7     8   am
    24     7     9    2
    25    20    21   ar
    26    21    15   ar
    27     6     1   ar
    28    12    13    1
    29    22    23    1
    30    26    27    1
    31    26    28    1
    32     8    10    1
    33     8    11    1
@<TRIPOS>MOLECULE
*****
 32 33 0 0 0
SMALL
GASTEIGER

@<TRIPOS>ATOM
      1 C         139.5886  140.8795  165.4096 C.ar    1  UNL1        0.0730
      2 C         140.1555  140.8035  166.7962 C.ar    1  UNL1        0.0322
      3 C         139.5259  139.9009  167.8155 C.ar    1  UNL1        0.0654
      4 C         138.3294  139.0743  167.4481 C.ar    1  UNL1        0.1133
      5 N         137.7624  139.1503  166.0615 N.ar    1  UNL1       -0.2367
      6 C         138.3920  140.0529  165.0422 C.ar    1  UNL1        0.1476
      7 C         137.8250  140.1289  163.6556 C.2     1  UNL1        0.2617
      8 N         136.8747  141.2314  163.2932 N.am    1  UNL1       -0.3240
      9 O         138.2085  139.1023  162.6312 O.2     1  UNL1       -0.2687
     10 H         136.6231  141.9051  163.9655 H       1  UNL1        0.1453
     11 H         136.5026  141.2812  162.3831 H       1  UNL1        0.1453
     12 N         140.2181  141.7821  164.3903 N.pl3   1  UNL1       -0.2966
     13 H         139.6628  142.2003  163.6932 H       1  UNL1        0.1537
     14 C         144.1800  145.1194  164.7987 C.3     1  UNL1        0.0312
     15 C         143.6748  143.7162  164.6374 C.ar    1  UNL1       -0.0179
     16 C         144.6452  142.5786  164.5189 C.ar    1  UNL1        0.0106
     17 C         144.1400  141.1755  164.3576 C.ar    1  UNL1        0.0605
     18 C         145.1105  140.0379  164.2391 C.3     1  UNL1        0.0521
     19 N         142.6643  140.9100  164.3147 N.ar    1  UNL1       -0.2349
     20 C         141.6939  142.0476  164.4332 C.ar    1  UNL1        0.1315
     21 C         142.1991  143.4507  164.5945 C.ar    1  UNL1        0.0301
     22 N         140.0928  139.8249  169.2022 N.pl3   1  UNL1       -0.3303
     23 H         140.4623  138.9760  169.5371 H       1  UNL1        0.1469
     24 C         140.0968  141.0423  170.0786 C.3     1  UNL1        0.1029
     25 C         141.3926  141.5797  170.6097 C.3     1  UNL1        0.0763
     26 N         141.9971  140.9901  171.8495 N.3     1  UNL1       -0.3207
     27 H         141.3986  140.2404  172.1962 H       1  UNL1        0.1189
     28 H         142.0832  141.7138  172.5631 H       1  UNL1        0.1189
     29 C         142.0838  142.7067  169.9012 C.3     1  UNL1        0.0895
     30 C         143.3678  142.4560  169.1673 C.3     1  UNL1        0.3200
     31 F         143.3568  142.2698  167.6789 F       1  UNL1       -0.1984
     32 F         144.6626  142.3916  169.9217 F       1  UNL1       -0.1984
@<TRIPOS>BOND
     1    14    15    1
     2    15    16   ar
     3    16    17   ar
     4    17    18    1
     5    17    19   ar
     6    19    20   ar
     7    20    12    1
     8    12     1    1
     9     1     2   ar
    10     2     3   ar
    11     3    22    1
    12    22    24    1
    13    24    25    1
    14    25    26    1
    15    25    29    1
    16    29    30    1
    17    30    31    1
    18    30    32    1
    19     3     4   ar
    20     4     5   ar
    21     5     6   ar
    22     6     7    1
    23     7     8   am
    24     7     9    2
    25    20    21   ar
    26    21    15   ar
    27     6     1   ar
    28    12    13    1
    29    22    23    1
    30    26    27    1
    31    26    28    1
    32     8    10    1
    33     8    11    1
@<TRIPOS>MOLECULE
*****
 32 33 0 0 0
SMALL
GASTEIGER

@<TRIPOS>ATOM
      1 C         139.4816  140.9585  165.5004 C.ar    1  UNL1        0.0730
      2 C         140.0026  140.8817  166.9049 C.ar    1  UNL1        0.0322
      3 C         139.3949  139.9157  167.8784 C.ar    1  UNL1        0.0654
      4 C         138.2662  139.0268  167.4474 C.ar    1  UNL1        0.1133
      5 N         137.7452  139.1037  166.0429 N.ar    1  UNL1       -0.2367
      6 C         138.3528  140.0695  165.0694 C.ar    1  UNL1        0.1476
      7 C         137.8318  140.1464  163.6649 C.2     1  UNL1        0.2617
      8 N         136.8952  141.2501  163.2718 N.am    1  UNL1       -0.3240
      9 O         138.2474  139.1195  162.6535 O.2     1  UNL1       -0.2687
     10 H         136.6225  141.9241  163.9356 H       1  UNL1        0.1453
     11 H         136.5533  141.3006  162.3500 H       1  UNL1        0.1453
     12 N         140.0893  141.9244  164.5268 N.pl3   1  UNL1       -0.2966
     13 H         139.5144  142.4133  163.8946 H       1  UNL1        0.1537
     14 C         144.9204  140.0247  164.2996 C.3     1  UNL1        0.0312
     15 C         143.9884  141.1955  164.4029 C.ar    1  UNL1       -0.0179
     16 C         144.5400  142.5872  164.4959 C.ar    1  UNL1        0.0106
     17 C         143.6081  143.7581  164.5992 C.ar    1  UNL1        0.0605
     18 C         144.1598  145.1499  164.6923 C.3     1  UNL1        0.0521
     19 N         142.1245  143.5371  164.6095 N.ar    1  UNL1       -0.2349
     20 C         141.5729  142.1454  164.5165 C.ar    1  UNL1        0.1315
     21 C         142.5048  140.9746  164.4132 C.ar    1  UNL1        0.0301
     22 N         139.9159  139.8388  169.2829 N.pl3   1  UNL1       -0.3303
     23 H         140.1933  138.9720  169.6583 H       1  UNL1        0.1469
     24 C         140.0144  141.0827  170.1155 C.3     1  UNL1        0.1029
     25 C         141.3541  141.5662  170.5860 C.3     1  UNL1        0.0763
     26 N         142.0133  140.9172  171.7668 N.3     1  UNL1       -0.3207
     27 H         141.4149  140.1721  172.1233 H       1  UNL1        0.1189
     28 H         142.1621  141.6128  172.4979 H       1  UNL1        0.1189
     29 C         142.0346  142.6986  169.8757 C.3     1  UNL1        0.0895
     30 C         143.3294  142.4625  169.1561 C.3     1  UNL1        0.3200
     31 F         144.6121  142.3761  169.9290 F       1  UNL1       -0.1984
     32 F         143.3415  142.3129  167.6636 F       1  UNL1       -0.1984
@<TRIPOS>BOND
     1    14    15    1
     2    15    16   ar
     3    16    17   ar
     4    17    18    1
     5    17    19   ar
     6    19    20   ar
     7    20    12    1
     8    12     1    1
     9     1     2   ar
    10     2     3   ar
    11     3    22    1
    12    22    24    1
    13    24    25    1
    14    25    26    1
    15    25    29    1
    16    29    30    1
    17    30    31    1
    18    30    32    1
    19     3     4   ar
    20     4     5   ar
    21     5     6   ar
    22     6     7    1
    23     7     8   am
    24     7     9    2
    25    20    21   ar
    26    21    15   ar
    27     6     1   ar
    28    12    13    1
    29    22    23    1
    30    26    27    1
    31    26    28    1
    32     8    10    1
    33     8    11    1
@<TRIPOS>MOLECULE
*****
 32 33 0 0 0
SMALL
GASTEIGER

@<TRIPOS>ATOM
      1 C         140.4794  140.5764  167.1334 C.ar    1  UNL1        0.0730
      2 C         140.0987  140.1462  165.7478 C.ar    1  UNL1        0.0322
      3 C         138.8922  139.2803  165.5362 C.ar    1  UNL1        0.0654
      4 C         138.0665  138.8446  166.7102 C.ar    1  UNL1        0.1133
      5 N         138.4472  139.2749  168.0958 N.ar    1  UNL1       -0.2367
      6 C         139.6536  140.1407  168.3075 C.ar    1  UNL1        0.1476
      7 C         140.0342  140.5710  169.6931 C.2     1  UNL1        0.2617
      8 N         140.2265  139.5454  170.7706 N.am    1  UNL1       -0.3240
      9 O         140.2227  142.0269  170.0012 O.2     1  UNL1       -0.2687
     10 H         140.1028  138.5898  170.5685 H       1  UNL1        0.1453
     11 H         140.4763  139.8278  171.6801 H       1  UNL1        0.1453
     12 N         141.6857  141.4423  167.3450 N.pl3   1  UNL1       -0.2966
     13 H         142.0426  141.5760  168.2528 H       1  UNL1        0.1537
     14 C         145.6135  141.7042  163.9532 C.3     1  UNL1        0.0312
     15 C         144.3124  142.2354  164.4777 C.ar    1  UNL1       -0.0179
     16 C         143.6741  143.4287  163.8307 C.ar    1  UNL1        0.0106
     17 C         142.3731  143.9599  164.3552 C.ar    1  UNL1        0.0605
     18 C         141.7348  145.1532  163.7081 C.3     1  UNL1        0.0521
     19 N         141.7103  143.2978  165.5266 N.ar    1  UNL1       -0.2349
     20 C         142.3485  142.1045  166.1736 C.ar    1  UNL1        0.1315
     21 C         143.6496  141.5733  165.6491 C.ar    1  UNL1        0.0301
     22 N         138.5115  138.8500  164.1506 N.pl3   1  UNL1       -0.3303
     23 H         138.1516  137.9466  163.9971 H       1  UNL1        0.1469
     24 C         138.6793  139.7963  162.9988 C.3     1  UNL1        0.1029
     25 C         138.0497  141.1569  163.0482 C.3     1  UNL1        0.0763
     26 N         136.5574  141.2956  162.9850 N.3     1  UNL1       -0.3207
     27 H         136.1329  140.3711  162.9108 H       1  UNL1        0.1189
     28 H         136.3020  141.8534  162.1702 H       1  UNL1        0.1189
     29 C         138.9124  142.3788  163.1607 C.3     1  UNL1        0.0895
     30 C         138.3414  143.6519  163.7112 C.3     1  UNL1        0.3200
     31 F         138.6946  144.0932  165.1007 F       1  UNL1       -0.1984
     32 F         137.4172  144.4838  162.8723 F       1  UNL1       -0.1984
@<TRIPOS>BOND
     1    14    15    1
     2    15    16   ar
     3    16    17   ar
     4    17    18    1
     5    17    19   ar
     6    19    20   ar
     7    20    12    1
     8    12     1    1
     9     1     2   ar
    10     2     3   ar
    11     3    22    1
    12    22    24    1
    13    24    25    1
    14    25    26    1
    15    25    29    1
    16    29    30    1
    17    30    31    1
    18    30    32    1
    19     3     4   ar
    20     4     5   ar
    21     5     6   ar
    22     6     7    1
    23     7     8   am
    24     7     9    2
    25    20    21   ar
    26    21    15   ar
    27     6     1   ar
    28    12    13    1
    29    22    23    1
    30    26    27    1
    31    26    28    1
    32     8    10    1
    33     8    11    1
@<TRIPOS>MOLECULE
*****
 32 33 0 0 0
SMALL
GASTEIGER

@<TRIPOS>ATOM
      1 C         139.7243  140.7296  165.5415 C.ar    1  UNL1        0.0730
      2 C         140.2005  140.6720  166.9627 C.ar    1  UNL1        0.0322
      3 C         139.4372  139.8737  167.9777 C.ar    1  UNL1        0.0654
      4 C         138.1977  139.1330  167.5714 C.ar    1  UNL1        0.1133
      5 N         137.7215  139.1906  166.1502 N.ar    1  UNL1       -0.2367
      6 C         138.4847  139.9889  165.1352 C.ar    1  UNL1        0.1476
      7 C         138.0085  140.0465  163.7140 C.2     1  UNL1        0.2617
      8 N         137.0692  141.1329  163.2812 N.am    1  UNL1       -0.3240
      9 O         138.4717  139.0176  162.7255 O.2     1  UNL1       -0.2687
     10 H         136.7652  141.8081  163.9299 H       1  UNL1        0.1453
     11 H         136.7566  141.1707  162.3484 H       1  UNL1        0.1453
     12 N         140.4875  141.5279  164.5265 N.pl3   1  UNL1       -0.2966
     13 H         140.1425  142.3992  164.2249 H       1  UNL1        0.1537
     14 C         145.6409  141.9019  163.9766 C.3     1  UNL1        0.0312
     15 C         144.3532  141.1856  163.6961 C.ar    1  UNL1       -0.0179
     16 C         144.3543  139.9401  162.8603 C.ar    1  UNL1        0.0106
     17 C         143.0666  139.2239  162.5798 C.ar    1  UNL1        0.0605
     18 C         143.0678  137.9783  161.7439 C.3     1  UNL1        0.0521
     19 N         141.7776  139.7531  163.1352 N.ar    1  UNL1       -0.2349
     20 C         141.7765  140.9986  163.9711 C.ar    1  UNL1        0.1315
     21 C         143.0642  141.7148  164.2515 C.ar    1  UNL1        0.0301
     22 N         139.9134  139.8161  169.3989 N.pl3   1  UNL1       -0.3303
     23 H         140.1335  138.9488  169.8096 H       1  UNL1        0.1469
     24 C         140.0542  141.0799  170.1945 C.3     1  UNL1        0.1029
     25 C         141.4105  141.5351  170.6453 C.3     1  UNL1        0.0763
     26 N         142.0829  140.8575  171.8024 N.3     1  UNL1       -0.3207
     27 H         141.4800  140.1161  172.1593 H       1  UNL1        0.1189
     28 H         142.2572  141.5390  172.5410 H       1  UNL1        0.1189
     29 C         142.0945  142.6679  169.9390 C.3     1  UNL1        0.0895
     30 C         143.3846  142.4288  169.2120 C.3     1  UNL1        0.3200
     31 F         144.6807  142.4206  169.9671 F       1  UNL1       -0.1984
     32 F         143.3786  142.1979  167.7299 F       1  UNL1       -0.1984
@<TRIPOS>BOND
     1    14    15    1
     2    15    16   ar
     3    16    17   ar
     4    17    18    1
     5    17    19   ar
     6    19    20   ar
     7    20    12    1
     8    12     1    1
     9     1     2   ar
    10     2     3   ar
    11     3    22    1
    12    22    24    1
    13    24    25    1
    14    25    26    1
    15    25    29    1
    16    29    30    1
    17    30    31    1
    18    30    32    1
    19     3     4   ar
    20     4     5   ar
    21     5     6   ar
    22     6     7    1
    23     7     8   am
    24     7     9    2
    25    20    21   ar
    26    21    15   ar
    27     6     1   ar
    28    12    13    1
    29    22    23    1
    30    26    27    1
    31    26    28    1
    32     8    10    1
    33     8    11    1
@<TRIPOS>MOLECULE
*****
 32 33 0 0 0
SMALL
GASTEIGER

@<TRIPOS>ATOM
      1 C         140.0547  140.1187  165.3171 C.ar    1  UNL1        0.0730
      2 C         140.3756  140.2626  166.7753 C.ar    1  UNL1        0.0322
      3 C         139.4174  139.7481  167.8084 C.ar    1  UNL1        0.0654
      4 C         138.1384  139.0898  167.3834 C.ar    1  UNL1        0.1133
      5 N         137.8175  138.9460  165.9252 N.ar    1  UNL1       -0.2367
      6 C         138.7756  139.4604  164.8921 C.ar    1  UNL1        0.1476
      7 C         138.4546  139.3166  163.4339 C.2     1  UNL1        0.2617
      8 N         137.8498  140.4651  162.6822 N.am    1  UNL1       -0.3240
      9 O         138.7386  138.0241  162.7274 O.2     1  UNL1       -0.2687
     10 H         137.6635  141.3133  163.1459 H       1  UNL1        0.1453
     11 H         137.6392  140.3707  161.7251 H       1  UNL1        0.1453
     12 N         141.0127  140.6332  164.2840 N.pl3   1  UNL1       -0.2966
     13 H         141.5979  140.0066  163.7999 H       1  UNL1        0.1537
     14 C         143.7231  145.0611  164.0660 C.3     1  UNL1        0.0312
     15 C         142.4346  144.3162  163.8794 C.ar    1  UNL1       -0.0179
     16 C         141.2127  145.0404  163.3972 C.ar    1  UNL1        0.0106
     17 C         139.9242  144.2955  163.2106 C.ar    1  UNL1        0.0605
     18 C         138.7023  145.0198  162.7284 C.3     1  UNL1        0.0521
     19 N         139.8575  142.8265  163.5062 N.ar    1  UNL1       -0.2349
     20 C         141.0794  142.1023  163.9884 C.ar    1  UNL1        0.1315
     21 C         142.3679  142.8472  164.1750 C.ar    1  UNL1        0.0301
     22 N         139.7384  139.8919  169.2666 N.pl3   1  UNL1       -0.3303
     23 H         140.1408  139.1401  169.7586 H       1  UNL1        0.1469
     24 C         139.4461  141.1813  169.9753 C.3     1  UNL1        0.1029
     25 C         140.5738  142.0344  170.4757 C.3     1  UNL1        0.0763
     26 N         140.8528  142.1213  171.9470 N.3     1  UNL1       -0.3207
     27 H         140.1845  141.5416  172.4546 H       1  UNL1        0.1189
     28 H         140.7640  143.0901  172.2533 H       1  UNL1        0.1189
     29 C         141.4225  142.8007  169.5049 C.3     1  UNL1        0.0895
     30 C         142.7031  142.2072  168.9971 C.3     1  UNL1        0.3200
     31 F         143.2073  142.5679  167.6312 F       1  UNL1       -0.1984
     32 F         143.4796  141.2529  169.8553 F       1  UNL1       -0.1984
@<TRIPOS>BOND
     1    14    15    1
     2    15    16   ar
     3    16    17   ar
     4    17    18    1
     5    17    19   ar
     6    19    20   ar
     7    20    12    1
     8    12     1    1
     9     1     2   ar
    10     2     3   ar
    11     3    22    1
    12    22    24    1
    13    24    25    1
    14    25    26    1
    15    25    29    1
    16    29    30    1
    17    30    31    1
    18    30    32    1
    19     3     4   ar
    20     4     5   ar
    21     5     6   ar
    22     6     7    1
    23     7     8   am
    24     7     9    2
    25    20    21   ar
    26    21    15   ar
    27     6     1   ar
    28    12    13    1
    29    22    23    1
    30    26    27    1
    31    26    28    1
    32     8    10    1
    33     8    11    1
@<TRIPOS>MOLECULE
*****
 32 33 0 0 0
SMALL
GASTEIGER

@<TRIPOS>ATOM
      1 C         143.4142  141.5613  165.1906 C.ar    1  UNL1        0.0730
      2 C         142.6149  141.3802  166.4469 C.ar    1  UNL1        0.0322
      3 C         142.5089  140.0241  167.0794 C.ar    1  UNL1        0.0654
      4 C         143.2022  138.8493  166.4556 C.ar    1  UNL1        0.1133
      5 N         144.0015  139.0305  165.1993 N.ar    1  UNL1       -0.2367
      6 C         144.1075  140.3865  164.5668 C.ar    1  UNL1        0.1476
      7 C         144.9068  140.5677  163.3105 C.2     1  UNL1        0.2617
      8 N         144.6011  139.7355  162.1005 N.am    1  UNL1       -0.3240
      9 O         146.0118  141.5811  163.2642 O.2     1  UNL1       -0.2687
     10 H         143.8759  139.0704  162.1309 H       1  UNL1        0.1453
     11 H         145.1257  139.8545  161.2760 H       1  UNL1        0.1453
     12 N         143.5202  142.9173  164.5581 N.pl3   1  UNL1       -0.2966
     13 H         144.3944  143.3663  164.4999 H       1  UNL1        0.1537
     14 C         138.7097  144.7528  165.2584 C.3     1  UNL1        0.0312
     15 C         139.8890  144.5070  164.3646 C.ar    1  UNL1       -0.0179
     16 C         139.8423  144.9330  162.9272 C.ar    1  UNL1        0.0106
     17 C         141.0215  144.6872  162.0334 C.ar    1  UNL1        0.0605
     18 C         140.9748  145.1133  160.5959 C.3     1  UNL1        0.0521
     19 N         142.2475  144.0153  162.5770 N.ar    1  UNL1       -0.2349
     20 C         142.2942  143.5892  164.0144 C.ar    1  UNL1        0.1315
     21 C         141.1149  143.8351  164.9083 C.ar    1  UNL1        0.0301
     22 N         141.7096  139.8429  168.3357 N.pl3   1  UNL1       -0.3303
     23 H         140.7834  139.5127  168.2866 H       1  UNL1        0.1469
     24 C         142.3215  140.1648  169.6669 C.3     1  UNL1        0.1029
     25 C         141.7368  141.2532  170.5176 C.3     1  UNL1        0.0763
     26 N         140.9600  140.9043  171.7525 N.3     1  UNL1       -0.3207
     27 H         140.9293  139.8905  171.8598 H       1  UNL1        0.1189
     28 H         140.0101  141.2665  171.6703 H       1  UNL1        0.1189
     29 C         141.9289  142.6903  170.1333 C.3     1  UNL1        0.0895
     30 C         140.8140  143.4454  169.4724 C.3     1  UNL1        0.3200
     31 F         140.1972  142.9198  168.2101 F       1  UNL1       -0.1984
     32 F         140.3159  144.7261  170.0737 F       1  UNL1       -0.1984
@<TRIPOS>BOND
     1    14    15    1
     2    15    16   ar
     3    16    17   ar
     4    17    18    1
     5    17    19   ar
     6    19    20   ar
     7    20    12    1
     8    12     1    1
     9     1     2   ar
    10     2     3   ar
    11     3    22    1
    12    22    24    1
    13    24    25    1
    14    25    26    1
    15    25    29    1
    16    29    30    1
    17    30    31    1
    18    30    32    1
    19     3     4   ar
    20     4     5   ar
    21     5     6   ar
    22     6     7    1
    23     7     8   am
    24     7     9    2
    25    20    21   ar
    26    21    15   ar
    27     6     1   ar
    28    12    13    1
    29    22    23    1
    30    26    27    1
    31    26    28    1
    32     8    10    1
    33     8    11    1
@<TRIPOS>MOLECULE
*****
 32 33 0 0 0
SMALL
GASTEIGER

@<TRIPOS>ATOM
      1 C         140.7298  140.9123  167.6353 C.ar    1  UNL1        0.0730
      2 C         141.6715  141.4334  166.5905 C.ar    1  UNL1        0.0322
      3 C         142.9499  142.1029  167.0000 C.ar    1  UNL1        0.0654
      4 C         143.2865  142.2512  168.4541 C.ar    1  UNL1        0.1133
      5 N         142.3448  141.7300  169.4989 N.ar    1  UNL1       -0.2367
      6 C         141.0665  141.0606  169.0895 C.ar    1  UNL1        0.1476
      7 C         140.1247  140.5394  170.1343 C.2     1  UNL1        0.2617
      8 N         140.5292  139.3820  170.9983 N.am    1  UNL1       -0.3240
      9 O         138.7785  141.1758  170.3151 O.2     1  UNL1       -0.2687
     10 H         141.4128  138.9643  170.8797 H       1  UNL1        0.1453
     11 H         139.9112  139.0399  171.6841 H       1  UNL1        0.1453
     12 N         139.4514  140.2428  167.2259 N.pl3   1  UNL1       -0.2966
     13 H         138.8747  139.8253  167.9059 H       1  UNL1        0.1537
     14 C         138.9890  137.6557  162.7434 C.3     1  UNL1        0.0312
     15 C         138.8205  138.9159  163.5393 C.ar    1  UNL1       -0.0179
     16 C         138.2523  140.1428  162.8898 C.ar    1  UNL1        0.0106
     17 C         138.0838  141.4030  163.6857 C.ar    1  UNL1        0.0605
     18 C         137.5155  142.6299  163.0361 C.3     1  UNL1        0.0521
     19 N         138.4835  141.4364  165.1310 N.ar    1  UNL1       -0.2349
     20 C         139.0517  140.2095  165.7805 C.ar    1  UNL1        0.1315
     21 C         139.2202  138.9493  164.9846 C.ar    1  UNL1        0.0301
     22 N         143.8916  142.6240  165.9552 N.pl3   1  UNL1       -0.3303
     23 H         144.5234  143.3455  166.1778 H       1  UNL1        0.1469
     24 C         143.8706  142.0460  164.5711 C.3     1  UNL1        0.1029
     25 C         145.0050  141.1845  164.1009 C.3     1  UNL1        0.0763
     26 N         146.1418  141.7937  163.3349 N.3     1  UNL1       -0.3207
     27 H         145.9805  142.7950  163.2259 H       1  UNL1        0.1189
     28 H         146.2045  141.3573  162.4151 H       1  UNL1        0.1189
     29 C         145.0026  139.7140  164.3965 C.3     1  UNL1        0.0895
     30 C         143.7221  139.0253  164.7656 C.3     1  UNL1        0.3200
     31 F         143.5289  138.4962  166.1559 F       1  UNL1       -0.1984
     32 F         142.6351  138.8657  163.7445 F       1  UNL1       -0.1984
@<TRIPOS>BOND
     1    14    15    1
     2    15    16   ar
     3    16    17   ar
     4    17    18    1
     5    17    19   ar
     6    19    20   ar
     7    20    12    1
     8    12     1    1
     9     1     2   ar
    10     2     3   ar
    11     3    22    1
    12    22    24    1
    13    24    25    1
    14    25    26    1
    15    25    29    1
    16    29    30    1
    17    30    31    1
    18    30    32    1
    19     3     4   ar
    20     4     5   ar
    21     5     6   ar
    22     6     7    1
    23     7     8   am
    24     7     9    2
    25    20    21   ar
    26    21    15   ar
    27     6     1   ar
    28    12    13    1
    29    22    23    1
    30    26    27    1
    31    26    28    1
    32     8    10    1
    33     8    11    1
@<TRIPOS>MOLECULE
*****
 32 33 0 0 0
SMALL
GASTEIGER

@<TRIPOS>ATOM
      1 C         141.4749  143.7816  164.3647 C.ar    1  UNL1        0.0730
      2 C         142.7600  143.1468  164.8069 C.ar    1  UNL1        0.0322
      3 C         143.9817  143.2456  163.9422 C.ar    1  UNL1        0.0654
      4 C         143.9183  143.9791  162.6354 C.ar    1  UNL1        0.1133
      5 N         142.6332  144.6139  162.1932 N.ar    1  UNL1       -0.2367
      6 C         141.4115  144.5152  163.0578 C.ar    1  UNL1        0.1476
      7 C         140.1264  145.1500  162.6156 C.2     1  UNL1        0.2617
      8 N         140.1134  146.5796  162.1616 N.am    1  UNL1       -0.3240
      9 O         138.8543  144.3552  162.6275 O.2     1  UNL1       -0.2687
     10 H         140.9483  147.1012  162.1539 H       1  UNL1        0.1453
     11 H         139.2700  146.9962  161.8714 H       1  UNL1        0.1453
     12 N         140.2532  143.6829  165.2294 N.pl3   1  UNL1       -0.2966
     13 H         139.5962  144.4161  165.2388 H       1  UNL1        0.1537
     14 C         140.7083  141.2400  169.7928 C.3     1  UNL1        0.0312
     15 C         140.2599  141.2456  168.3614 C.ar    1  UNL1       -0.0179
     16 C         139.5908  140.0355  167.7803 C.ar    1  UNL1        0.0106
     17 C         139.1424  140.0411  166.3489 C.ar    1  UNL1        0.0605
     18 C         138.4732  138.8308  165.7679 C.3     1  UNL1        0.0521
     19 N         139.3632  141.2569  165.4986 N.ar    1  UNL1       -0.2349
     20 C         140.0323  142.4670  166.0797 C.ar    1  UNL1        0.1315
     21 C         140.4807  142.4614  167.5111 C.ar    1  UNL1        0.0301
     22 N         145.2668  142.6107  164.3844 N.pl3   1  UNL1       -0.3303
     23 H         145.7691  142.9913  165.1408 H       1  UNL1        0.1469
     24 C         145.7865  141.3960  163.6742 C.3     1  UNL1        0.1029
     25 C         144.9239  140.1756  163.5464 C.3     1  UNL1        0.0763
     26 N         144.5233  139.6791  162.1887 N.3     1  UNL1       -0.3207
     27 H         144.9229  140.2864  161.4731 H       1  UNL1        0.1189
     28 H         143.5063  139.6854  162.1108 H       1  UNL1        0.1189
     29 C         144.4618  139.4515  164.7761 C.3     1  UNL1        0.0895
     30 C         143.0724  139.6700  165.2974 C.3     1  UNL1        0.3200
     31 F         141.8981  139.5645  164.3700 F       1  UNL1       -0.1984
     32 F         142.8572  139.9939  166.7461 F       1  UNL1       -0.1984
@<TRIPOS>BOND
     1    14    15    1
     2    15    16   ar
     3    16    17   ar
     4    17    18    1
     5    17    19   ar
     6    19    20   ar
     7    20    12    1
     8    12     1    1
     9     1     2   ar
    10     2     3   ar
    11     3    22    1
    12    22    24    1
    13    24    25    1
    14    25    26    1
    15    25    29    1
    16    29    30    1
    17    30    31    1
    18    30    32    1
    19     3     4   ar
    20     4     5   ar
    21     5     6   ar
    22     6     7    1
    23     7     8   am
    24     7     9    2
    25    20    21   ar
    26    21    15   ar
    27     6     1   ar
    28    12    13    1
    29    22    23    1
    30    26    27    1
    31    26    28    1
    32     8    10    1
    33     8    11    1
