@<TRIPOS>MOLECULE
*****
 29 32 0 0 0
SMALL
GASTEIGER

@<TRIPOS>ATOM
      1 C         142.6305  141.1476  166.3662 C.3     1  UNL1        0.1007
      2 C         141.5075  140.9748  167.3454 C.ar    1  UNL1        0.0103
      3 C         141.5255  141.7208  168.6466 C.ar    1  UNL1        0.0044
      4 C         140.4024  141.5480  169.6259 C.ar    1  UNL1        0.0702
      5 C         139.2614  140.6292  169.3039 C.ar    1  UNL1        0.2658
      6 O         138.1383  140.4563  170.2832 O.2     1  UNL1       -0.2666
      7 N         139.2433  139.8831  168.0027 N.ar    1  UNL1       -0.2734
      8 C         138.1022  138.9643  167.6808 C.ar    1  UNL1        0.0829
      9 C         138.0842  138.2182  166.3796 C.ar    1  UNL1        0.0191
     10 C         139.2073  138.3911  165.4003 C.ar    1  UNL1        0.0030
     11 C         140.3483  139.3099  165.7223 C.ar    1  UNL1        0.0174
     12 C         140.3663  140.0559  167.0235 C.ar    1  UNL1        0.0642
     13 C         140.4205  142.2941  170.9271 C.2     1  UNL1        0.0775
     14 O         139.3377  143.2842  171.2390 O.co2   1  UNL1       -0.5444
     15 O         141.5212  142.0500  171.9163 O.co2   1  UNL1       -0.5444
     16 N         141.8802  143.1669  162.4154 N.pl3   1  UNL1       -0.3046
     17 C         142.7603  141.9542  162.4826 C.3     1  UNL1        0.1081
     18 C         143.0104  141.2810  163.7995 C.3     1  UNL1        0.0941
     19 N         142.3804  141.8207  165.0493 N.3     1  UNL1       -0.2659
     20 C         141.5002  143.0335  164.9821 C.3     1  UNL1        0.0941
     21 C         141.2501  143.7066  163.6651 C.3     1  UNL1        0.1081
     22 C         141.1298  145.1863  158.4645 C.ar    1  UNL1        0.0685
     23 C         140.2944  145.5410  159.6587 C.ar    1  UNL1        0.0115
     24 C         140.5445  144.8679  160.9757 C.ar    1  UNL1        0.0152
     25 C         141.6301  143.8400  161.0985 C.ar    1  UNL1        0.0480
     26 C         142.4655  143.4853  159.9042 C.ar    1  UNL1        0.0152
     27 C         142.2154  144.1584  158.5873 C.ar    1  UNL1        0.0115
     28 N         140.6296  146.5325  155.8306 N.1     1  UNL1       -0.1908
     29 C         140.8797  145.8594  157.1476 C.1     1  UNL1        0.1004
@<TRIPOS>UNITY_ATOM_ATTR
14 1
charge -1
@<TRIPOS>BOND
     1    28    29    3
     2    29    22    1
     3    22    23   ar
     4    23    24   ar
     5    24    25   ar
     6    25    16    1
     7    16    17    1
     8    17    18    1
     9    18    19    1
    10    19     1    1
    11     1     2    1
    12     2     3   ar
    13     3     4   ar
    14     4    13    1
    15    13    14   ar
    16    13    15   ar
    17     4     5   ar
    18     5     6    2
    19     5     7   ar
    20     7     8   ar
    21     8     9   ar
    22     9    10   ar
    23    10    11   ar
    24    11    12   ar
    25    19    20    1
    26    20    21    1
    27    25    26   ar
    28    26    27   ar
    29    27    22   ar
    30    21    16    1
    31    12     2   ar
    32    12     7   ar
@<TRIPOS>MOLECULE
*****
 29 32 0 0 0
SMALL
GASTEIGER

@<TRIPOS>ATOM
      1 C         138.5511  139.4107  164.8201 C.3     1  UNL1        0.1007
      2 C         139.3872  139.5259  166.0601 C.ar    1  UNL1        0.0103
      3 C         138.7578  139.9569  167.3517 C.ar    1  UNL1        0.0044
      4 C         139.5939  140.0722  168.5917 C.ar    1  UNL1        0.0702
      5 C         141.0594  139.7565  168.5402 C.ar    1  UNL1        0.2658
      6 O         141.8954  139.8718  169.7803 O.2     1  UNL1       -0.2666
      7 N         141.6888  139.3255  167.2486 N.ar    1  UNL1       -0.2734
      8 C         143.1543  139.0098  167.1971 C.ar    1  UNL1        0.0829
      9 C         143.7837  138.5789  165.9056 C.ar    1  UNL1        0.0191
     10 C         142.9476  138.4636  164.6656 C.ar    1  UNL1        0.0030
     11 C         141.4821  138.7793  164.7171 C.ar    1  UNL1        0.0174
     12 C         140.8528  139.2102  166.0086 C.ar    1  UNL1        0.0642
     13 C         138.9644  140.5032  169.8833 C.2     1  UNL1        0.0775
     14 O         139.2946  141.8446  170.4676 O.co2   1  UNL1       -0.5444
     15 O         138.0048  139.5927  170.5905 O.co2   1  UNL1       -0.5444
     16 N         139.2927  142.1680  161.3420 N.pl3   1  UNL1       -0.3046
     17 C         139.2624  142.7140  162.7388 C.3     1  UNL1        0.1081
     18 C         139.0152  141.7949  163.8982 C.3     1  UNL1        0.0941
     19 N         138.7983  140.3297  163.6608 N.3     1  UNL1       -0.2659
     20 C         138.8286  139.7837  162.2640 C.3     1  UNL1        0.0941
     21 C         139.0758  140.7029  161.1046 C.3     1  UNL1        0.1081
     22 C         140.0344  144.9254  157.8640 C.ar    1  UNL1        0.0685
     23 C         139.3840  143.5926  157.6390 C.ar    1  UNL1        0.0115
     24 C         139.1368  142.6734  158.7984 C.ar    1  UNL1        0.0152
     25 C         139.5399  143.0871  160.1827 C.ar    1  UNL1        0.0480
     26 C         140.1904  144.4200  160.4076 C.ar    1  UNL1        0.0152
     27 C         140.4376  145.3390  159.2483 C.ar    1  UNL1        0.0115
     28 N         140.5288  146.7635  155.5452 N.1     1  UNL1       -0.1908
     29 C         140.2816  145.8444  156.7046 C.1     1  UNL1        0.1004
@<TRIPOS>UNITY_ATOM_ATTR
14 1
charge -1
@<TRIPOS>BOND
     1    28    29    3
     2    29    22    1
     3    22    23   ar
     4    23    24   ar
     5    24    25   ar
     6    25    16    1
     7    16    17    1
     8    17    18    1
     9    18    19    1
    10    19     1    1
    11     1     2    1
    12     2     3   ar
    13     3     4   ar
    14     4    13    1
    15    13    14   ar
    16    13    15   ar
    17     4     5   ar
    18     5     6    2
    19     5     7   ar
    20     7     8   ar
    21     8     9   ar
    22     9    10   ar
    23    10    11   ar
    24    11    12   ar
    25    19    20    1
    26    20    21    1
    27    25    26   ar
    28    26    27   ar
    29    27    22   ar
    30    21    16    1
    31    12     2   ar
    32    12     7   ar
@<TRIPOS>MOLECULE
*****
 29 32 0 0 0
SMALL
GASTEIGER

@<TRIPOS>ATOM
      1 C         142.9865  141.3789  165.8095 C.3     1  UNL1        0.1007
      2 C         141.8656  141.0100  166.7355 C.ar    1  UNL1        0.0103
      3 C         140.6803  140.2530  166.2140 C.ar    1  UNL1        0.0044
      4 C         139.5594  139.8841  167.1400 C.ar    1  UNL1        0.0702
      5 C         139.6237  140.2721  168.5875 C.ar    1  UNL1        0.2658
      6 O         138.5028  139.9032  169.5135 O.2     1  UNL1       -0.2666
      7 N         140.8091  141.0291  169.1091 N.ar    1  UNL1       -0.2734
      8 C         140.8735  141.4172  170.5565 C.ar    1  UNL1        0.0829
      9 C         142.0588  142.1741  171.0780 C.ar    1  UNL1        0.0191
     10 C         143.1797  142.5431  170.1521 C.ar    1  UNL1        0.0030
     11 C         143.1153  142.1550  168.7046 C.ar    1  UNL1        0.0174
     12 C         141.9300  141.3981  168.1831 C.ar    1  UNL1        0.0642
     13 C         138.3740  139.1271  166.6184 C.2     1  UNL1        0.0775
     14 O         137.8970  139.3551  165.2147 O.co2   1  UNL1       -0.5444
     15 O         137.6657  138.1422  167.5006 O.co2   1  UNL1       -0.5444
     16 N         142.0903  143.3533  161.8664 N.pl3   1  UNL1       -0.3046
     17 C         142.8255  142.0463  161.9008 C.3     1  UNL1        0.1081
     18 C         143.1242  141.3882  163.2151 C.3     1  UNL1        0.0941
     19 N         142.6878  142.0370  164.4952 N.3     1  UNL1       -0.2659
     20 C         141.9525  143.3441  164.4608 C.3     1  UNL1        0.0941
     21 C         141.6538  144.0022  163.1464 C.3     1  UNL1        0.1081
     22 C         141.1941  145.3277  157.9232 C.ar    1  UNL1        0.0685
     23 C         140.3825  145.6730  159.1365 C.ar    1  UNL1        0.0115
     24 C         140.6812  145.0149  160.4509 C.ar    1  UNL1        0.0152
     25 C         141.7915  144.0114  160.5520 C.ar    1  UNL1        0.0480
     26 C         142.6031  143.6660  159.3387 C.ar    1  UNL1        0.0152
     27 C         142.3044  144.3241  158.0243 C.ar    1  UNL1        0.0115
     28 N         140.5966  146.6439  155.2944 N.1     1  UNL1       -0.1908
     29 C         140.8953  145.9858  156.6089 C.1     1  UNL1        0.1004
@<TRIPOS>UNITY_ATOM_ATTR
14 1
charge -1
@<TRIPOS>BOND
     1    28    29    3
     2    29    22    1
     3    22    23   ar
     4    23    24   ar
     5    24    25   ar
     6    25    16    1
     7    16    17    1
     8    17    18    1
     9    18    19    1
    10    19     1    1
    11     1     2    1
    12     2     3   ar
    13     3     4   ar
    14     4    13    1
    15    13    14   ar
    16    13    15   ar
    17     4     5   ar
    18     5     6    2
    19     5     7   ar
    20     7     8   ar
    21     8     9   ar
    22     9    10   ar
    23    10    11   ar
    24    11    12   ar
    25    19    20    1
    26    20    21    1
    27    25    26   ar
    28    26    27   ar
    29    27    22   ar
    30    21    16    1
    31    12     2   ar
    32    12     7   ar
@<TRIPOS>MOLECULE
*****
 29 32 0 0 0
SMALL
GASTEIGER

@<TRIPOS>ATOM
      1 C         142.9047  137.9366  157.1856 C.3     1  UNL1        0.1007
      2 C         142.8677  136.6616  156.3963 C.ar    1  UNL1        0.0103
      3 C         143.2355  135.3632  157.0512 C.ar    1  UNL1        0.0044
      4 C         143.1985  134.0882  156.2619 C.ar    1  UNL1        0.0702
      5 C         142.7937  134.1116  154.8178 C.ar    1  UNL1        0.2658
      6 O         142.7566  132.8366  154.0285 O.2     1  UNL1       -0.2666
      7 N         142.4258  135.4100  154.1629 N.ar    1  UNL1       -0.2734
      8 C         142.0210  135.4334  152.7187 C.ar    1  UNL1        0.0829
      9 C         141.6532  136.7318  152.0639 C.ar    1  UNL1        0.0191
     10 C         141.6902  138.0068  152.8532 C.ar    1  UNL1        0.0030
     11 C         142.0950  137.9834  154.2973 C.ar    1  UNL1        0.0174
     12 C         142.4628  136.6850  154.9521 C.ar    1  UNL1        0.0642
     13 C         143.5663  132.7898  156.9168 C.2     1  UNL1        0.0775
     14 O         142.5429  131.7014  157.0516 O.co2   1  UNL1       -0.5444
     15 O         144.9575  132.5797  157.4368 O.co2   1  UNL1       -0.5444
     16 N         140.8570  138.1667  161.1861 N.pl3   1  UNL1       -0.3046
     17 C         142.2974  137.7562  161.1034 C.3     1  UNL1        0.1081
     18 C         142.9799  137.6795  159.7699 C.3     1  UNL1        0.0941
     19 N         142.2221  138.0133  158.5191 N.3     1  UNL1       -0.2659
     20 C         140.7817  138.4237  158.6019 C.3     1  UNL1        0.0941
     21 C         140.0992  138.5004  159.9354 C.3     1  UNL1        0.1081
     22 C         138.8093  138.3967  165.1866 C.ar    1  UNL1        0.0685
     23 C         138.3449  139.2653  164.0553 C.ar    1  UNL1        0.0115
     24 C         139.0275  139.1886  162.7218 C.ar    1  UNL1        0.0152
     25 C         140.1744  138.2433  162.5196 C.ar    1  UNL1        0.0480
     26 C         140.6388  137.3747  163.6509 C.ar    1  UNL1        0.0152
     27 C         139.9562  137.4514  164.9844 C.ar    1  UNL1        0.0115
     28 N         137.4441  138.5500  167.8536 N.1     1  UNL1       -0.1908
     29 C         138.1267  138.4734  166.5201 C.1     1  UNL1        0.1004
@<TRIPOS>UNITY_ATOM_ATTR
14 1
charge -1
@<TRIPOS>BOND
     1    28    29    3
     2    29    22    1
     3    22    23   ar
     4    23    24   ar
     5    24    25   ar
     6    25    16    1
     7    16    17    1
     8    17    18    1
     9    18    19    1
    10    19     1    1
    11     1     2    1
    12     2     3   ar
    13     3     4   ar
    14     4    13    1
    15    13    14   ar
    16    13    15   ar
    17     4     5   ar
    18     5     6    2
    19     5     7   ar
    20     7     8   ar
    21     8     9   ar
    22     9    10   ar
    23    10    11   ar
    24    11    12   ar
    25    19    20    1
    26    20    21    1
    27    25    26   ar
    28    26    27   ar
    29    27    22   ar
    30    21    16    1
    31    12     2   ar
    32    12     7   ar
@<TRIPOS>MOLECULE
*****
 29 32 0 0 0
SMALL
GASTEIGER

@<TRIPOS>ATOM
      1 C         140.2259  143.2608  165.8270 C.3     1  UNL1        0.1007
      2 C         140.9203  142.1373  166.5381 C.ar    1  UNL1        0.0103
      3 C         141.5629  141.0345  165.7502 C.ar    1  UNL1        0.0044
      4 C         142.2572  139.9110  166.4613 C.ar    1  UNL1        0.0702
      5 C         142.3090  139.8904  167.9602 C.ar    1  UNL1        0.2658
      6 O         143.0034  138.7669  168.6713 O.2     1  UNL1       -0.2666
      7 N         141.6664  140.9933  168.7482 N.ar    1  UNL1       -0.2734
      8 C         141.7182  140.9726  170.2471 C.ar    1  UNL1        0.0829
      9 C         141.0756  142.0755  171.0349 C.ar    1  UNL1        0.0191
     10 C         140.3813  143.1990  170.3239 C.ar    1  UNL1        0.0030
     11 C         140.3295  143.2196  168.8249 C.ar    1  UNL1        0.0174
     12 C         140.9721  142.1168  168.0371 C.ar    1  UNL1        0.0642
     13 C         142.8998  138.8081  165.6734 C.2     1  UNL1        0.0775
     14 O         142.0545  137.7232  165.0748 O.co2   1  UNL1       -0.5444
     15 O         144.3877  138.7902  165.4840 O.co2   1  UNL1       -0.5444
     16 N         141.0977  144.0551  161.4843 N.pl3   1  UNL1       -0.3046
     17 C         142.0228  144.5783  162.5429 C.3     1  UNL1        0.1081
     18 C         141.7322  144.3136  163.9904 C.3     1  UNL1        0.0941
     19 N         140.5165  143.5256  164.3794 N.3     1  UNL1       -0.2659
     20 C         139.5915  143.0024  163.3209 C.3     1  UNL1        0.0941
     21 C         139.8821  143.2672  161.8733 C.3     1  UNL1        0.1081
     22 C         141.9696  144.8494  157.1416 C.ar    1  UNL1        0.0685
     23 C         140.8696  145.5975  157.8347 C.ar    1  UNL1        0.0115
     24 C         140.5790  145.3328  159.2824 C.ar    1  UNL1        0.0152
     25 C         141.3883  144.3199  160.0368 C.ar    1  UNL1        0.0480
     26 C         142.4883  143.5718  159.3435 C.ar    1  UNL1        0.0152
     27 C         142.7789  143.8365  157.8960 C.ar    1  UNL1        0.0115
     28 N         142.5508  145.3790  154.2465 N.1     1  UNL1       -0.1908
     29 C         142.2602  145.1142  155.6941 C.1     1  UNL1        0.1004
@<TRIPOS>UNITY_ATOM_ATTR
14 1
charge -1
@<TRIPOS>BOND
     1    28    29    3
     2    29    22    1
     3    22    23   ar
     4    23    24   ar
     5    24    25   ar
     6    25    16    1
     7    16    17    1
     8    17    18    1
     9    18    19    1
    10    19     1    1
    11     1     2    1
    12     2     3   ar
    13     3     4   ar
    14     4    13    1
    15    13    14   ar
    16    13    15   ar
    17     4     5   ar
    18     5     6    2
    19     5     7   ar
    20     7     8   ar
    21     8     9   ar
    22     9    10   ar
    23    10    11   ar
    24    11    12   ar
    25    19    20    1
    26    20    21    1
    27    25    26   ar
    28    26    27   ar
    29    27    22   ar
    30    21    16    1
    31    12     2   ar
    32    12     7   ar
@<TRIPOS>MOLECULE
*****
 29 32 0 0 0
SMALL
GASTEIGER

@<TRIPOS>ATOM
      1 C         140.4213  143.5635  165.5902 C.3     1  UNL1        0.1007
      2 C         140.2820  142.5838  166.7175 C.ar    1  UNL1        0.0103
      3 C         140.8909  142.8871  168.0543 C.ar    1  UNL1        0.0044
      4 C         140.7517  141.9074  169.1816 C.ar    1  UNL1        0.0702
      5 C         140.0035  140.6243  168.9721 C.ar    1  UNL1        0.2658
      6 O         139.8642  139.6446  170.0994 O.2     1  UNL1       -0.2666
      7 N         139.3945  140.3209  167.6352 N.ar    1  UNL1       -0.2734
      8 C         138.6463  139.0379  167.4257 C.ar    1  UNL1        0.0829
      9 C         138.0373  138.7346  166.0889 C.ar    1  UNL1        0.0191
     10 C         138.1766  139.7143  164.9616 C.ar    1  UNL1        0.0030
     11 C         138.9248  140.9973  165.1711 C.ar    1  UNL1        0.0174
     12 C         139.5337  141.3007  166.5079 C.ar    1  UNL1        0.0642
     13 C         141.3607  142.2107  170.5185 C.2     1  UNL1        0.0775
     14 O         142.8266  142.5107  170.6242 O.co2   1  UNL1       -0.5444
     15 O         140.5038  142.2142  171.7496 O.co2   1  UNL1       -0.5444
     16 N         142.4238  142.3151  161.7586 N.pl3   1  UNL1       -0.3046
     17 C         141.2098  143.1951  161.7182 C.3     1  UNL1        0.1081
     18 C         140.5422  143.6112  162.9954 C.3     1  UNL1        0.0941
     19 N         141.0888  143.1473  164.3131 N.3     1  UNL1       -0.2659
     20 C         142.3028  142.2673  164.3535 C.3     1  UNL1        0.0941
     21 C         142.9704  141.8512  163.0762 C.3     1  UNL1        0.1081
     22 C         144.4264  141.0666  157.9271 C.ar    1  UNL1        0.0685
     23 C         144.3654  142.5174  158.3033 C.ar    1  UNL1        0.0115
     24 C         143.6979  142.9336  159.5805 C.ar    1  UNL1        0.0152
     25 C         143.0914  141.8990  160.4815 C.ar    1  UNL1        0.0480
     26 C         143.1524  140.4481  160.1052 C.ar    1  UNL1        0.0152
     27 C         143.8199  140.0320  158.8281 C.ar    1  UNL1        0.0115
     28 N         145.7615  140.2343  155.3727 N.1     1  UNL1       -0.1908
     29 C         145.0940  140.6505  156.6499 C.1     1  UNL1        0.1004
@<TRIPOS>UNITY_ATOM_ATTR
14 1
charge -1
@<TRIPOS>BOND
     1    28    29    3
     2    29    22    1
     3    22    23   ar
     4    23    24   ar
     5    24    25   ar
     6    25    16    1
     7    16    17    1
     8    17    18    1
     9    18    19    1
    10    19     1    1
    11     1     2    1
    12     2     3   ar
    13     3     4   ar
    14     4    13    1
    15    13    14   ar
    16    13    15   ar
    17     4     5   ar
    18     5     6    2
    19     5     7   ar
    20     7     8   ar
    21     8     9   ar
    22     9    10   ar
    23    10    11   ar
    24    11    12   ar
    25    19    20    1
    26    20    21    1
    27    25    26   ar
    28    26    27   ar
    29    27    22   ar
    30    21    16    1
    31    12     2   ar
    32    12     7   ar
@<TRIPOS>MOLECULE
*****
 29 32 0 0 0
SMALL
GASTEIGER

@<TRIPOS>ATOM
      1 C         143.0717  140.7815  164.9869 C.3     1  UNL1        0.1007
      2 C         142.2285  140.9512  166.2158 C.ar    1  UNL1        0.0103
      3 C         142.6861  141.8572  167.3202 C.ar    1  UNL1        0.0044
      4 C         141.8429  142.0269  168.5490 C.ar    1  UNL1        0.0702
      5 C         140.5419  141.2907  168.6735 C.ar    1  UNL1        0.2658
      6 O         139.6987  141.4605  169.9023 O.2     1  UNL1       -0.2666
      7 N         140.0842  140.3847  167.5690 N.ar    1  UNL1       -0.2734
      8 C         138.7833  139.6485  167.6935 C.ar    1  UNL1        0.0829
      9 C         138.3256  138.7426  166.5891 C.ar    1  UNL1        0.0191
     10 C         139.1689  138.5728  165.3602 C.ar    1  UNL1        0.0030
     11 C         140.4698  139.3090  165.2358 C.ar    1  UNL1        0.0174
     12 C         140.9275  140.2150  166.3402 C.ar    1  UNL1        0.0642
     13 C         142.3006  142.9329  169.6535 C.2     1  UNL1        0.0775
     14 O         143.7138  142.8550  170.1503 O.co2   1  UNL1       -0.5444
     15 O         141.3452  143.9168  170.2610 O.co2   1  UNL1       -0.5444
     16 N         142.1091  143.1096  161.2583 N.pl3   1  UNL1       -0.3046
     17 C         142.2555  143.8218  162.5703 C.3     1  UNL1        0.1081
     18 C         142.5763  143.0457  163.8132 C.3     1  UNL1        0.0941
     19 N         142.7509  141.5575  163.7440 N.3     1  UNL1       -0.2659
     20 C         142.6045  140.8453  162.4320 C.3     1  UNL1        0.0941
     21 C         142.2836  141.6214  161.1891 C.3     1  UNL1        0.1081
     22 C         141.1466  145.4377  157.5295 C.ar    1  UNL1        0.0685
     23 C         140.2680  145.5619  158.7389 C.ar    1  UNL1        0.0115
     24 C         140.5889  144.7858  159.9819 C.ar    1  UNL1        0.0152
     25 C         141.7883  143.8856  160.0154 C.ar    1  UNL1        0.0480
     26 C         142.6668  143.7615  158.8059 C.ar    1  UNL1        0.0152
     27 C         142.3460  144.5375  157.5630 C.ar    1  UNL1        0.0115
     28 N         140.5048  146.9898  155.0437 N.1     1  UNL1       -0.1908
     29 C         140.8257  146.2137  156.2867 C.1     1  UNL1        0.1004
@<TRIPOS>UNITY_ATOM_ATTR
14 1
charge -1
@<TRIPOS>BOND
     1    28    29    3
     2    29    22    1
     3    22    23   ar
     4    23    24   ar
     5    24    25   ar
     6    25    16    1
     7    16    17    1
     8    17    18    1
     9    18    19    1
    10    19     1    1
    11     1     2    1
    12     2     3   ar
    13     3     4   ar
    14     4    13    1
    15    13    14   ar
    16    13    15   ar
    17     4     5   ar
    18     5     6    2
    19     5     7   ar
    20     7     8   ar
    21     8     9   ar
    22     9    10   ar
    23    10    11   ar
    24    11    12   ar
    25    19    20    1
    26    20    21    1
    27    25    26   ar
    28    26    27   ar
    29    27    22   ar
    30    21    16    1
    31    12     2   ar
    32    12     7   ar
@<TRIPOS>MOLECULE
*****
 29 32 0 0 0
SMALL
GASTEIGER

@<TRIPOS>ATOM
      1 C         144.5959  142.5507  160.6395 C.3     1  UNL1        0.1007
      2 C         143.6905  142.9413  159.5091 C.ar    1  UNL1        0.0103
      3 C         142.3194  143.4770  159.7972 C.ar    1  UNL1        0.0044
      4 C         141.4140  143.8677  158.6669 C.ar    1  UNL1        0.0702
      5 C         141.8797  143.7225  157.2485 C.ar    1  UNL1        0.2658
      6 O         140.9743  144.1131  156.1181 O.2     1  UNL1       -0.2666
      7 N         143.2508  143.1867  156.9603 N.ar    1  UNL1       -0.2734
      8 C         143.7165  143.0416  155.5418 C.ar    1  UNL1        0.0829
      9 C         145.0876  142.5058  155.2537 C.ar    1  UNL1        0.0191
     10 C         145.9930  142.1152  156.3840 C.ar    1  UNL1        0.0030
     11 C         145.5273  142.2604  157.8025 C.ar    1  UNL1        0.0174
     12 C         144.1562  142.7961  158.0906 C.ar    1  UNL1        0.0642
     13 C         140.0429  144.4034  158.9551 C.2     1  UNL1        0.0775
     14 O         139.7582  145.8663  158.7848 O.co2   1  UNL1       -0.5444
     15 O         138.9565  143.4764  159.4136 O.co2   1  UNL1       -0.5444
     16 N         143.0222  142.4591  164.8543 N.pl3   1  UNL1       -0.3046
     17 C         142.8878  141.2498  163.9771 C.3     1  UNL1        0.1081
     18 C         143.4124  141.2803  162.5722 C.3     1  UNL1        0.0941
     19 N         144.0714  142.5202  162.0444 N.3     1  UNL1       -0.2659
     20 C         144.2058  143.7295  162.9216 C.3     1  UNL1        0.0941
     21 C         143.6812  143.6990  164.3266 C.3     1  UNL1        0.1081
     22 C         141.4486  142.3677  169.0692 C.ar    1  UNL1        0.0685
     23 C         140.4981  142.5018  167.9165 C.ar    1  UNL1        0.0115
     24 C         141.0227  142.5323  166.5115 C.ar    1  UNL1        0.0152
     25 C         142.4977  142.4287  166.2592 C.ar    1  UNL1        0.0480
     26 C         143.4481  142.2946  167.4120 C.ar    1  UNL1        0.0152
     27 C         142.9236  142.2641  168.8169 C.ar    1  UNL1        0.0115
     28 N         140.3995  142.3066  171.8791 N.1     1  UNL1       -0.1908
     29 C         140.9240  142.3372  170.4741 C.1     1  UNL1        0.1004
@<TRIPOS>UNITY_ATOM_ATTR
14 1
charge -1
@<TRIPOS>BOND
     1    28    29    3
     2    29    22    1
     3    22    23   ar
     4    23    24   ar
     5    24    25   ar
     6    25    16    1
     7    16    17    1
     8    17    18    1
     9    18    19    1
    10    19     1    1
    11     1     2    1
    12     2     3   ar
    13     3     4   ar
    14     4    13    1
    15    13    14   ar
    16    13    15   ar
    17     4     5   ar
    18     5     6    2
    19     5     7   ar
    20     7     8   ar
    21     8     9   ar
    22     9    10   ar
    23    10    11   ar
    24    11    12   ar
    25    19    20    1
    26    20    21    1
    27    25    26   ar
    28    26    27   ar
    29    27    22   ar
    30    21    16    1
    31    12     2   ar
    32    12     7   ar
@<TRIPOS>MOLECULE
*****
 29 32 0 0 0
SMALL
GASTEIGER

@<TRIPOS>ATOM
      1 C         144.0899  142.0117  159.3722 C.3     1  UNL1        0.1007
      2 C         143.2698  142.5883  160.4880 C.ar    1  UNL1        0.0103
      3 C         141.9373  143.2116  160.1948 C.ar    1  UNL1        0.0044
      4 C         141.1172  143.7882  161.3105 C.ar    1  UNL1        0.0702
      5 C         141.6295  143.7415  162.7195 C.ar    1  UNL1        0.2658
      6 O         140.8094  144.3181  163.8353 O.2     1  UNL1       -0.2666
      7 N         142.9621  143.1182  163.0128 N.ar    1  UNL1       -0.2734
      8 C         143.4744  143.0715  164.4218 C.ar    1  UNL1        0.0829
      9 C         144.8069  142.4483  164.7150 C.ar    1  UNL1        0.0191
     10 C         145.6270  141.8717  163.5992 C.ar    1  UNL1        0.0030
     11 C         145.1146  141.9184  162.1902 C.ar    1  UNL1        0.0174
     12 C         143.7822  142.5416  161.8970 C.ar    1  UNL1        0.0642
     13 C         139.7846  144.4115  161.0172 C.2     1  UNL1        0.0775
     14 O         139.6521  145.9044  160.9561 O.co2   1  UNL1       -0.5444
     15 O         138.5847  143.5419  160.7851 O.co2   1  UNL1       -0.5444
     16 N         142.9054  138.0944  157.5011 N.pl3   1  UNL1       -0.3046
     17 C         142.8974  138.2455  158.9934 C.3     1  UNL1        0.1081
     18 C         143.2922  139.5513  159.6171 C.3     1  UNL1        0.0941
     19 N         143.6951  140.7060  158.7485 N.3     1  UNL1       -0.2659
     20 C         143.7031  140.5548  157.2562 C.3     1  UNL1        0.0941
     21 C         143.3082  139.2490  156.6325 C.3     1  UNL1        0.1081
     22 C         141.7209  134.1771  155.6299 C.ar    1  UNL1        0.0685
     23 C         142.8428  134.2243  156.6244 C.ar    1  UNL1        0.0115
     24 C         143.2376  135.5301  157.2482 C.ar    1  UNL1        0.0152
     25 C         142.5106  136.7886  156.8774 C.ar    1  UNL1        0.0480
     26 C         141.3887  136.7413  155.8828 C.ar    1  UNL1        0.0152
     27 C         140.9939  135.4356  155.2591 C.ar    1  UNL1        0.0115
     28 N         140.9313  131.5654  154.3824 N.1     1  UNL1       -0.1908
     29 C         141.3261  132.8713  155.0062 C.1     1  UNL1        0.1004
@<TRIPOS>UNITY_ATOM_ATTR
14 1
charge -1
@<TRIPOS>BOND
     1    28    29    3
     2    29    22    1
     3    22    23   ar
     4    23    24   ar
     5    24    25   ar
     6    25    16    1
     7    16    17    1
     8    17    18    1
     9    18    19    1
    10    19     1    1
    11     1     2    1
    12     2     3   ar
    13     3     4   ar
    14     4    13    1
    15    13    14   ar
    16    13    15   ar
    17     4     5   ar
    18     5     6    2
    19     5     7   ar
    20     7     8   ar
    21     8     9   ar
    22     9    10   ar
    23    10    11   ar
    24    11    12   ar
    25    19    20    1
    26    20    21    1
    27    25    26   ar
    28    26    27   ar
    29    27    22   ar
    30    21    16    1
    31    12     2   ar
    32    12     7   ar
