@<TRIPOS>MOLECULE
*****
 35 38 0 0 0
SMALL
GASTEIGER

@<TRIPOS>ATOM
      1 C         140.0926  143.7049  160.7806 C.ar    1  UNL1        0.0525
      2 C         140.5429  143.8347  162.2054 C.ar    1  UNL1        0.0192
      3 C         139.7282  143.2259  163.3079 C.ar    1  UNL1        0.0508
      4 C         138.4631  142.4873  162.9856 C.ar    1  UNL1        0.0178
      5 C         138.0128  142.3574  161.5607 C.ar    1  UNL1        0.0382
      6 C         138.8275  142.9662  160.4582 C.ar    1  UNL1        0.1400
      7 C         142.9958  142.6462  159.7315 C.3     1  UNL1        0.1537
      8 N         142.2417  143.8270  159.1958 N.ar    1  UNL1       -0.2487
      9 N         142.6897  144.7286  158.0838 N.ar    1  UNL1       -0.1676
     10 C         141.6322  145.7725  157.8788 C.ar    1  UNL1        0.1217
     11 C         140.5306  145.5160  158.8640 C.ar    1  UNL1        0.0413
     12 C         140.9073  144.3137  159.6780 C.ar    1  UNL1        0.0825
     13 N         140.1786  143.3558  164.7329 N.am    1  UNL1       -0.2804
     14 C         141.0291  142.2860  165.3511 C.2     1  UNL1        0.2495
     15 O         141.4292  141.0863  164.5443 O.2     1  UNL1       -0.2698
     16 H         139.9160  144.1432  165.2623 H       1  UNL1        0.1552
     17 C         141.4794  142.4158  166.7759 C.ar    1  UNL1        0.0536
     18 C         142.9175  142.1813  167.1323 C.ar    1  UNL1        0.0045
     19 C         143.3678  142.3112  168.5573 C.ar    1  UNL1        0.0001
     20 C         142.3801  142.6754  169.6258 C.ar    1  UNL1        0.0039
     21 C         140.9421  142.9098  169.2694 C.ar    1  UNL1        0.0716
     22 C         140.4917  142.7800  167.8445 C.ar    1  UNL1        0.0084
     23 C         139.9543  143.2740  170.3379 C.3     1  UNL1        0.4186
     24 F         138.9666  143.6383  171.4064 F       1  UNL1       -0.1659
     25 F         140.3313  144.7187  170.1938 F       1  UNL1       -0.1659
     26 F         139.5774  141.8294  170.4819 F       1  UNL1       -0.1659
     27 O         138.3771  142.8363  159.0333 O.3     1  UNL1       -0.4739
     28 C         138.5973  141.5514  158.2913 C.3     1  UNL1        0.2226
     29 C         139.8874  140.8035  158.4531 C.3     1  UNL1        0.1202
     30 N         140.0181  139.7552  159.5180 N.3     1  UNL1       -0.2653
     31 C         138.7896  139.1691  160.1483 C.3     1  UNL1        0.1047
     32 C         138.9204  138.1208  161.2132 C.3     1  UNL1        0.1595
     33 O         140.2795  137.6587  161.6479 O.3     1  UNL1       -0.3508
     34 C         141.5081  138.2449  161.0176 C.3     1  UNL1        0.1595
     35 C         141.3774  139.2931  159.9527 C.3     1  UNL1        0.1047
@<TRIPOS>BOND
     1     7     8    1
     2     8     9   ar
     3     9    10   ar
     4    10    11   ar
     5    11    12   ar
     6    12     1    1
     7     1     2   ar
     8     2     3   ar
     9     3    13    1
    10    13    14   am
    11    14    15    2
    12    14    17    1
    13    17    18   ar
    14    18    19   ar
    15    19    20   ar
    16    20    21   ar
    17    21    23    1
    18    23    24    1
    19    23    25    1
    20    23    26    1
    21    21    22   ar
    22     3     4   ar
    23     4     5   ar
    24     5     6   ar
    25     6    27    1
    26    27    28    1
    27    28    29    1
    28    29    30    1
    29    30    31    1
    30    31    32    1
    31    32    33    1
    32    33    34    1
    33    34    35    1
    34    12     8   ar
    35     6     1   ar
    36    35    30    1
    37    22    17   ar
    38    13    16    1
@<TRIPOS>MOLECULE
*****
 35 38 0 0 0
SMALL
GASTEIGER

@<TRIPOS>ATOM
      1 C         140.2565  142.9436  161.7142 C.ar    1  UNL1        0.0525
      2 C         140.5848  142.8787  163.1763 C.ar    1  UNL1        0.0192
      3 C         139.4863  142.7192  164.1852 C.ar    1  UNL1        0.0508
      4 C         138.0596  142.6246  163.7320 C.ar    1  UNL1        0.0178
      5 C         137.7313  142.6895  162.2698 C.ar    1  UNL1        0.0382
      6 C         138.8297  142.8490  161.2609 C.ar    1  UNL1        0.1400
      7 C         140.7724  145.5636  159.8382 C.3     1  UNL1        0.1537
      8 N         141.5920  144.3074  159.8429 N.ar    1  UNL1       -0.2487
      9 N         142.7927  144.0349  158.9862 N.ar    1  UNL1       -0.1676
     10 C         143.2977  142.6622  159.3189 C.ar    1  UNL1        0.1217
     11 C         142.4091  142.0863  160.3813 C.ar    1  UNL1        0.0413
     12 C         141.3549  143.1031  160.7052 C.ar    1  UNL1        0.0825
     13 N         139.8146  142.6543  165.6475 N.am    1  UNL1       -0.2804
     14 C         139.9085  141.3253  166.3368 C.2     1  UNL1        0.2495
     15 O         139.6741  140.0613  165.5638 O.2     1  UNL1       -0.2698
     16 H         139.9685  143.4839  166.1548 H       1  UNL1        0.1552
     17 C         140.2368  141.2604  167.7989 C.ar    1  UNL1        0.0536
     18 C         139.4810  140.3259  168.6965 C.ar    1  UNL1        0.0045
     19 C         139.8094  140.2609  170.1587 C.ar    1  UNL1        0.0001
     20 C         140.8934  141.1305  170.7233 C.ar    1  UNL1        0.0039
     21 C         141.6491  142.0650  169.8258 C.ar    1  UNL1        0.0716
     22 C         141.3208  142.1299  168.3636 C.ar    1  UNL1        0.0084
     23 C         142.7331  142.9345  170.3904 C.3     1  UNL1        0.4186
     24 F         143.8171  143.8041  170.9551 F       1  UNL1       -0.1659
     25 F         141.7850  144.0964  170.4211 F       1  UNL1       -0.1659
     26 F         143.6811  141.7725  170.3597 F       1  UNL1       -0.1659
     27 O         138.5014  142.9139  159.7987 O.3     1  UNL1       -0.4739
     28 C         138.1843  141.6566  159.0447 C.3     1  UNL1        0.2226
     29 C         139.1686  140.5249  159.0259 C.3     1  UNL1        0.1202
     30 N         139.2296  139.5647  160.1767 N.3     1  UNL1       -0.2653
     31 C         140.5426  138.9652  160.5846 C.3     1  UNL1        0.1047
     32 C         140.6036  138.0051  161.7354 C.3     1  UNL1        0.1595
     33 O         139.3515  137.6444  162.4784 O.3     1  UNL1       -0.3508
     34 C         138.0383  138.2439  162.0706 C.3     1  UNL1        0.1595
     35 C         137.9773  139.2041  160.9197 C.3     1  UNL1        0.1047
@<TRIPOS>BOND
     1     7     8    1
     2     8     9   ar
     3     9    10   ar
     4    10    11   ar
     5    11    12   ar
     6    12     1    1
     7     1     2   ar
     8     2     3   ar
     9     3    13    1
    10    13    14   am
    11    14    15    2
    12    14    17    1
    13    17    18   ar
    14    18    19   ar
    15    19    20   ar
    16    20    21   ar
    17    21    23    1
    18    23    24    1
    19    23    25    1
    20    23    26    1
    21    21    22   ar
    22     3     4   ar
    23     4     5   ar
    24     5     6   ar
    25     6    27    1
    26    27    28    1
    27    28    29    1
    28    29    30    1
    29    30    31    1
    30    31    32    1
    31    32    33    1
    32    33    34    1
    33    34    35    1
    34    12     8   ar
    35     6     1   ar
    36    35    30    1
    37    22    17   ar
    38    13    16    1
@<TRIPOS>MOLECULE
*****
 35 38 0 0 0
SMALL
GASTEIGER

@<TRIPOS>ATOM
      1 C         142.5313  143.2265  163.1374 C.ar    1  UNL1        0.0525
      2 C         142.4783  143.7658  161.7388 C.ar    1  UNL1        0.0192
      3 C         141.5039  144.8516  161.3901 C.ar    1  UNL1        0.0508
      4 C         140.5826  145.3980  162.4402 C.ar    1  UNL1        0.0178
      5 C         140.6357  144.8587  163.8388 C.ar    1  UNL1        0.0382
      6 C         141.6100  143.7729  164.1874 C.ar    1  UNL1        0.1400
      7 C         141.7927  140.1028  163.7264 C.3     1  UNL1        0.1537
      8 N         143.1662  140.7048  163.7568 N.ar    1  UNL1       -0.2487
      9 N         144.4414  139.9768  164.0633 N.ar    1  UNL1       -0.1676
     10 C         145.5691  140.9627  163.9820 C.ar    1  UNL1        0.1217
     11 C         144.9908  142.2999  163.6253 C.ar    1  UNL1        0.0413
     12 C         143.5057  142.1406  163.4861 C.ar    1  UNL1        0.0825
     13 N         141.4508  145.3909  159.9914 N.am    1  UNL1       -0.2804
     14 C         140.4047  144.8972  159.0364 C.2     1  UNL1        0.2495
     15 O         139.4117  143.8642  159.4802 O.2     1  UNL1       -0.2698
     16 H         142.1025  146.0689  159.7002 H       1  UNL1        0.1552
     17 C         140.3515  145.4366  157.6378 C.ar    1  UNL1        0.0536
     18 C         141.0116  144.6864  156.5191 C.ar    1  UNL1        0.0045
     19 C         140.9585  145.2258  155.1204 C.ar    1  UNL1        0.0001
     20 C         140.2452  146.5152  154.8404 C.ar    1  UNL1        0.0039
     21 C         139.5851  147.2654  155.9591 C.ar    1  UNL1        0.0716
     22 C         139.6382  146.7261  157.3578 C.ar    1  UNL1        0.0084
     23 C         138.8718  148.5549  155.6792 C.3     1  UNL1        0.4186
     24 F         138.1585  149.8445  155.3992 F       1  UNL1       -0.1659
     25 F         139.2404  148.4440  154.2294 F       1  UNL1       -0.1659
     26 F         138.5032  148.6658  157.1289 F       1  UNL1       -0.1659
     27 O         141.6631  143.2336  165.5862 O.3     1  UNL1       -0.4739
     28 C         140.3994  142.8135  166.2765 C.3     1  UNL1        0.2226
     29 C         140.3569  141.5260  167.0449 C.3     1  UNL1        0.1202
     30 N         140.7178  141.5093  168.5008 N.3     1  UNL1       -0.2653
     31 C         141.6781  142.5237  169.0471 C.3     1  UNL1        0.1047
     32 C         142.0390  142.5069  170.5030 C.3     1  UNL1        0.1595
     33 O         141.4395  141.4757  171.4125 O.3     1  UNL1       -0.3508
     34 C         140.4791  140.4612  170.8661 C.3     1  UNL1        0.1595
     35 C         140.1182  140.4780  169.4102 C.3     1  UNL1        0.1047
@<TRIPOS>BOND
     1     7     8    1
     2     8     9   ar
     3     9    10   ar
     4    10    11   ar
     5    11    12   ar
     6    12     1    1
     7     1     2   ar
     8     2     3   ar
     9     3    13    1
    10    13    14   am
    11    14    15    2
    12    14    17    1
    13    17    18   ar
    14    18    19   ar
    15    19    20   ar
    16    20    21   ar
    17    21    23    1
    18    23    24    1
    19    23    25    1
    20    23    26    1
    21    21    22   ar
    22     3     4   ar
    23     4     5   ar
    24     5     6   ar
    25     6    27    1
    26    27    28    1
    27    28    29    1
    28    29    30    1
    29    30    31    1
    30    31    32    1
    31    32    33    1
    32    33    34    1
    33    34    35    1
    34    12     8   ar
    35     6     1   ar
    36    35    30    1
    37    22    17   ar
    38    13    16    1
@<TRIPOS>MOLECULE
*****
 35 38 0 0 0
SMALL
GASTEIGER

@<TRIPOS>ATOM
      1 C         142.5624  143.2994  162.8284 C.ar    1  UNL1        0.0525
      2 C         142.4561  143.8884  161.4530 C.ar    1  UNL1        0.0192
      3 C         141.4214  144.9351  161.1633 C.ar    1  UNL1        0.0508
      4 C         140.4930  145.3927  162.2490 C.ar    1  UNL1        0.0178
      5 C         140.5993  144.8037  163.6244 C.ar    1  UNL1        0.0382
      6 C         141.6340  143.7570  163.9141 C.ar    1  UNL1        0.1400
      7 C         142.4566  140.1810  161.8721 C.3     1  UNL1        0.1537
      8 N         143.5484  140.8194  162.6786 N.ar    1  UNL1       -0.2487
      9 N         144.7834  140.1365  163.1871 N.ar    1  UNL1       -0.1676
     10 C         145.5953  141.1477  163.9409 C.ar    1  UNL1        0.1217
     11 C         144.8621  142.4556  163.8983 C.ar    1  UNL1        0.0413
     12 C         143.5971  142.2527  163.1181 C.ar    1  UNL1        0.0825
     13 N         141.3151  145.5242  159.7879 N.am    1  UNL1       -0.2804
     14 C         140.3078  144.9839  158.8165 C.2     1  UNL1        0.2495
     15 O         139.4069  143.8546  159.2205 O.2     1  UNL1       -0.2698
     16 H         141.9063  146.2653  159.5227 H       1  UNL1        0.1552
     17 C         140.2015  145.5730  157.4411 C.ar    1  UNL1        0.0536
     18 C         140.7470  144.8253  156.2607 C.ar    1  UNL1        0.0045
     19 C         140.6406  145.4144  154.8853 C.ar    1  UNL1        0.0001
     20 C         139.9887  146.7511  154.6903 C.ar    1  UNL1        0.0039
     21 C         139.4431  147.4988  155.8707 C.ar    1  UNL1        0.0716
     22 C         139.5495  146.9098  157.2460 C.ar    1  UNL1        0.0084
     23 C         138.7912  148.8355  155.6757 C.3     1  UNL1        0.4186
     24 F         138.1392  150.1723  155.4807 F       1  UNL1       -0.1659
     25 F         138.4389  148.8763  157.1331 F       1  UNL1       -0.1659
     26 F         139.1434  148.7947  154.2182 F       1  UNL1       -0.1659
     27 O         141.7403  143.1679  165.2895 O.3     1  UNL1       -0.4739
     28 C         140.5794  142.4221  165.8777 C.3     1  UNL1        0.2226
     29 C         139.7999  141.4596  165.0315 C.3     1  UNL1        0.1202
     30 N         140.3123  140.0667  164.8144 N.3     1  UNL1       -0.2653
     31 C         139.5573  139.1192  163.9299 C.3     1  UNL1        0.1047
     32 C         140.0697  137.7263  163.7128 C.3     1  UNL1        0.1595
     33 O         141.3370  137.2807  164.3802 O.3     1  UNL1       -0.3508
     34 C         142.0920  138.2282  165.2647 C.3     1  UNL1        0.1595
     35 C         141.5796  139.6211  165.4818 C.3     1  UNL1        0.1047
@<TRIPOS>BOND
     1     7     8    1
     2     8     9   ar
     3     9    10   ar
     4    10    11   ar
     5    11    12   ar
     6    12     1    1
     7     1     2   ar
     8     2     3   ar
     9     3    13    1
    10    13    14   am
    11    14    15    2
    12    14    17    1
    13    17    18   ar
    14    18    19   ar
    15    19    20   ar
    16    20    21   ar
    17    21    23    1
    18    23    24    1
    19    23    25    1
    20    23    26    1
    21    21    22   ar
    22     3     4   ar
    23     4     5   ar
    24     5     6   ar
    25     6    27    1
    26    27    28    1
    27    28    29    1
    28    29    30    1
    29    30    31    1
    30    31    32    1
    31    32    33    1
    32    33    34    1
    33    34    35    1
    34    12     8   ar
    35     6     1   ar
    36    35    30    1
    37    22    17   ar
    38    13    16    1
@<TRIPOS>MOLECULE
*****
 35 38 0 0 0
SMALL
GASTEIGER

@<TRIPOS>ATOM
      1 C         141.4412  139.9265  161.1761 C.ar    1  UNL1        0.0525
      2 C         141.8446  140.2434  162.5856 C.ar    1  UNL1        0.0192
      3 C         140.8551  140.0867  163.7021 C.ar    1  UNL1        0.0508
      4 C         139.4623  139.6132  163.4089 C.ar    1  UNL1        0.0178
      5 C         139.0590  139.2964  161.9994 C.ar    1  UNL1        0.0382
      6 C         140.0484  139.4530  160.8830 C.ar    1  UNL1        0.1400
      7 C         143.0119  137.5063  159.6513 C.3     1  UNL1        0.1537
      8 N         143.1526  138.9707  159.3588 N.ar    1  UNL1       -0.2487
      9 N         144.0400  139.5798  158.3140 N.ar    1  UNL1       -0.1676
     10 C         143.8664  141.0687  158.3690 C.ar    1  UNL1        0.1217
     11 C         142.8718  141.3798  159.4479 C.ar    1  UNL1        0.0413
     12 C         142.4306  140.0831  160.0596 C.ar    1  UNL1        0.0825
     13 N         141.2585  140.4036  165.1117 N.am    1  UNL1       -0.2804
     14 C         141.2193  141.8204  165.6025 C.2     1  UNL1        0.2495
     15 O         140.7768  142.9205  164.6837 O.2     1  UNL1       -0.2698
     16 H         141.5489  139.6816  165.7147 H       1  UNL1        0.1552
     17 C         141.6226  142.1373  167.0121 C.ar    1  UNL1        0.0536
     18 C         143.0627  142.0396  167.4201 C.ar    1  UNL1        0.0045
     19 C         143.4660  142.3565  168.8297 C.ar    1  UNL1        0.0001
     20 C         142.4292  142.7711  169.8312 C.ar    1  UNL1        0.0039
     21 C         140.9891  142.8688  169.4232 C.ar    1  UNL1        0.0716
     22 C         140.5858  142.5520  168.0137 C.ar    1  UNL1        0.0084
     23 C         139.9523  143.2834  170.4247 C.3     1  UNL1        0.4186
     24 F         138.9154  143.6980  171.4263 F       1  UNL1       -0.1659
     25 F         139.6269  141.8424  170.6844 F       1  UNL1       -0.1659
     26 F         140.2777  144.7245  170.1650 F       1  UNL1       -0.1659
     27 O         139.6450  139.1362  159.4733 O.3     1  UNL1       -0.4739
     28 C         138.6787  140.0278  158.7514 C.3     1  UNL1        0.2226
     29 C         139.0691  141.4348  158.4081 C.3     1  UNL1        0.1202
     30 N         139.1112  142.4840  159.4792 N.3     1  UNL1       -0.2653
     31 C         140.0296  143.6617  159.3397 C.3     1  UNL1        0.1047
     32 C         140.0717  144.7110  160.4109 C.3     1  UNL1        0.1595
     33 O         139.1954  144.5825  161.6214 O.3     1  UNL1       -0.3508
     34 C         138.2770  143.4048  161.7609 C.3     1  UNL1        0.1595
     35 C         138.2348  142.3555  160.6898 C.3     1  UNL1        0.1047
@<TRIPOS>BOND
     1     7     8    1
     2     8     9   ar
     3     9    10   ar
     4    10    11   ar
     5    11    12   ar
     6    12     1    1
     7     1     2   ar
     8     2     3   ar
     9     3    13    1
    10    13    14   am
    11    14    15    2
    12    14    17    1
    13    17    18   ar
    14    18    19   ar
    15    19    20   ar
    16    20    21   ar
    17    21    23    1
    18    23    24    1
    19    23    25    1
    20    23    26    1
    21    21    22   ar
    22     3     4   ar
    23     4     5   ar
    24     5     6   ar
    25     6    27    1
    26    27    28    1
    27    28    29    1
    28    29    30    1
    29    30    31    1
    30    31    32    1
    31    32    33    1
    32    33    34    1
    33    34    35    1
    34    12     8   ar
    35     6     1   ar
    36    35    30    1
    37    22    17   ar
    38    13    16    1
@<TRIPOS>MOLECULE
*****
 35 38 0 0 0
SMALL
GASTEIGER

@<TRIPOS>ATOM
      1 C         142.4650  143.1328  161.6040 C.ar    1  UNL1        0.0525
      2 C         142.1715  142.9504  163.0636 C.ar    1  UNL1        0.0192
      3 C         143.2232  142.3926  163.9761 C.ar    1  UNL1        0.0508
      4 C         144.5685  142.0173  163.4290 C.ar    1  UNL1        0.0178
      5 C         144.8620  142.1997  161.9694 C.ar    1  UNL1        0.0382
      6 C         143.8103  142.7574  161.0569 C.ar    1  UNL1        0.1400
      7 C         139.6239  141.7116  160.8566 C.3     1  UNL1        0.1537
      8 N         140.1074  143.0373  160.3479 N.ar    1  UNL1       -0.2487
      9 N         139.3698  143.9425  159.4063 N.ar    1  UNL1       -0.1676
     10 C         140.2199  145.1553  159.1679 C.ar    1  UNL1        0.1217
     11 C         141.4827  144.9995  159.9621 C.ar    1  UNL1        0.0413
     12 C         141.4132  143.6905  160.6914 C.ar    1  UNL1        0.0825
     13 N         142.9297  142.2102  165.4358 N.am    1  UNL1       -0.2804
     14 C         142.3716  140.9092  165.9317 C.2     1  UNL1        0.2495
     15 O         142.1071  139.7906  164.9679 O.2     1  UNL1       -0.2698
     16 H         143.1033  142.9444  166.0684 H       1  UNL1        0.1552
     17 C         142.0781  140.7267  167.3913 C.ar    1  UNL1        0.0536
     18 C         142.6345  139.5433  168.1260 C.ar    1  UNL1        0.0045
     19 C         142.3409  139.3608  169.5857 C.ar    1  UNL1        0.0001
     20 C         141.4910  140.3619  170.3107 C.ar    1  UNL1        0.0039
     21 C         140.9346  141.5454  169.5759 C.ar    1  UNL1        0.0716
     22 C         141.2282  141.7278  168.1163 C.ar    1  UNL1        0.0084
     23 C         140.0847  142.5464  170.3009 C.3     1  UNL1        0.4186
     24 F         139.2347  143.5475  171.0258 F       1  UNL1       -0.1659
     25 F         138.9430  141.5736  170.3055 F       1  UNL1       -0.1659
     26 F         141.2265  143.5192  170.2962 F       1  UNL1       -0.1659
     27 O         144.1038  142.9398  159.5972 O.3     1  UNL1       -0.4739
     28 C         143.6205  141.9262  158.6027 C.3     1  UNL1        0.2226
     29 C         144.0708  140.4993  158.7070 C.3     1  UNL1        0.1202
     30 N         143.3677  139.5572  159.6387 N.3     1  UNL1       -0.2653
     31 C         144.1305  138.8834  160.7406 C.3     1  UNL1        0.1047
     32 C         143.4274  137.9413  161.6723 C.3     1  UNL1        0.1595
     33 O         141.9615  137.6730  161.5021 O.3     1  UNL1       -0.3508
     34 C         141.1985  138.3467  160.4003 C.3     1  UNL1        0.1595
     35 C         141.9016  139.2888  159.4685 C.3     1  UNL1        0.1047
@<TRIPOS>BOND
     1     7     8    1
     2     8     9   ar
     3     9    10   ar
     4    10    11   ar
     5    11    12   ar
     6    12     1    1
     7     1     2   ar
     8     2     3   ar
     9     3    13    1
    10    13    14   am
    11    14    15    2
    12    14    17    1
    13    17    18   ar
    14    18    19   ar
    15    19    20   ar
    16    20    21   ar
    17    21    23    1
    18    23    24    1
    19    23    25    1
    20    23    26    1
    21    21    22   ar
    22     3     4   ar
    23     4     5   ar
    24     5     6   ar
    25     6    27    1
    26    27    28    1
    27    28    29    1
    28    29    30    1
    29    30    31    1
    30    31    32    1
    31    32    33    1
    32    33    34    1
    33    34    35    1
    34    12     8   ar
    35     6     1   ar
    36    35    30    1
    37    22    17   ar
    38    13    16    1
@<TRIPOS>MOLECULE
*****
 35 38 0 0 0
SMALL
GASTEIGER

@<TRIPOS>ATOM
      1 C         139.1388  140.7257  163.2554 C.ar    1  UNL1        0.0525
      2 C         139.7104  140.4956  161.8879 C.ar    1  UNL1        0.0192
      3 C         139.8481  139.0992  161.3578 C.ar    1  UNL1        0.0508
      4 C         139.4142  137.9328  162.1953 C.ar    1  UNL1        0.0178
      5 C         138.8426  138.1629  163.5629 C.ar    1  UNL1        0.0382
      6 C         138.7049  139.5593  164.0929 C.ar    1  UNL1        0.1400
      7 C         141.5317  142.5342  164.5411 C.3     1  UNL1        0.1537
      8 N         140.1009  142.9534  164.3765 N.ar    1  UNL1       -0.2487
      9 N         139.5189  144.2775  164.7740 N.ar    1  UNL1       -0.1676
     10 C         138.0592  144.2646  164.4287 C.ar    1  UNL1        0.1217
     11 C         137.7392  142.9325  163.8178 C.ar    1  UNL1        0.0413
     12 C         139.0010  142.1221  163.7856 C.ar    1  UNL1        0.0825
     13 N         140.4197  138.8690  159.9902 N.am    1  UNL1       -0.2804
     14 C         141.8510  138.4470  159.8368 C.2     1  UNL1        0.2495
     15 O         142.7105  138.2551  161.0511 O.2     1  UNL1       -0.2698
     16 H         139.8556  138.9950  159.1932 H       1  UNL1        0.1552
     17 C         142.4226  138.2168  158.4693 C.ar    1  UNL1        0.0536
     18 C         142.7147  139.3832  157.5724 C.ar    1  UNL1        0.0045
     19 C         143.2864  139.1530  156.2048 C.ar    1  UNL1        0.0001
     20 C         143.5659  137.7565  155.7341 C.ar    1  UNL1        0.0039
     21 C         143.2738  136.5901  156.6310 C.ar    1  UNL1        0.0716
     22 C         142.7022  136.8203  157.9985 C.ar    1  UNL1        0.0084
     23 C         143.5534  135.1936  156.1603 C.3     1  UNL1        0.4186
     24 F         143.8329  133.7971  155.6895 F       1  UNL1       -0.1659
     25 F         144.0760  135.7355  154.8629 F       1  UNL1       -0.1659
     26 F         143.0307  134.6517  157.4576 F       1  UNL1       -0.1659
     27 O         138.1333  139.7895  165.4606 O.3     1  UNL1       -0.4739
     28 C         138.9074  139.3746  166.6765 C.3     1  UNL1        0.2226
     29 C         140.3225  139.8376  166.8587 C.3     1  UNL1        0.1202
     30 N         140.8552  140.0971  168.2367 N.3     1  UNL1       -0.2653
     31 C         139.9131  140.1866  169.4005 C.3     1  UNL1        0.1047
     32 C         140.4457  140.4461  170.7785 C.3     1  UNL1        0.1595
     33 O         141.9206  140.6161  170.9927 O.3     1  UNL1       -0.3508
     34 C         142.8628  140.5266  169.8290 C.3     1  UNL1        0.1595
     35 C         142.3301  140.2671  168.4510 C.3     1  UNL1        0.1047
@<TRIPOS>BOND
     1     7     8    1
     2     8     9   ar
     3     9    10   ar
     4    10    11   ar
     5    11    12   ar
     6    12     1    1
     7     1     2   ar
     8     2     3   ar
     9     3    13    1
    10    13    14   am
    11    14    15    2
    12    14    17    1
    13    17    18   ar
    14    18    19   ar
    15    19    20   ar
    16    20    21   ar
    17    21    23    1
    18    23    24    1
    19    23    25    1
    20    23    26    1
    21    21    22   ar
    22     3     4   ar
    23     4     5   ar
    24     5     6   ar
    25     6    27    1
    26    27    28    1
    27    28    29    1
    28    29    30    1
    29    30    31    1
    30    31    32    1
    31    32    33    1
    32    33    34    1
    33    34    35    1
    34    12     8   ar
    35     6     1   ar
    36    35    30    1
    37    22    17   ar
    38    13    16    1
@<TRIPOS>MOLECULE
*****
 35 38 0 0 0
SMALL
GASTEIGER

@<TRIPOS>ATOM
      1 C         141.2937  139.9955  160.4765 C.ar    1  UNL1        0.0525
      2 C         140.8812  140.0622  161.9171 C.ar    1  UNL1        0.0192
      3 C         141.2809  138.9689  162.8631 C.ar    1  UNL1        0.0508
      4 C         142.0930  137.8089  162.3684 C.ar    1  UNL1        0.0178
      5 C         142.5056  137.7421  160.9279 C.ar    1  UNL1        0.0382
      6 C         142.1059  138.8355  159.9819 C.ar    1  UNL1        0.1400
      7 C         138.9223  139.8261  158.2410 C.3     1  UNL1        0.1537
      8 N         139.8040  141.0110  158.5030 N.ar    1  UNL1       -0.2487
      9 N         139.7506  142.3260  157.7833 N.ar    1  UNL1       -0.1676
     10 C         140.8075  143.2166  158.3662 C.ar    1  UNL1        0.1217
     11 C         141.5142  142.4520  159.4459 C.ar    1  UNL1        0.0413
     12 C         140.8940  141.0888  159.5305 C.ar    1  UNL1        0.0825
     13 N         140.8683  139.0356  164.3037 N.am    1  UNL1       -0.2804
     14 C         141.7292  139.7573  165.2977 C.2     1  UNL1        0.2495
     15 O         143.0026  140.4123  164.8510 O.2     1  UNL1       -0.2698
     16 H         140.0326  138.6057  164.5969 H       1  UNL1        0.1552
     17 C         141.3168  139.8240  166.7383 C.ar    1  UNL1        0.0536
     18 C         139.8884  140.1086  167.0971 C.ar    1  UNL1        0.0045
     19 C         139.4760  140.1753  168.5378 C.ar    1  UNL1        0.0001
     20 C         140.4919  139.9574  169.6196 C.ar    1  UNL1        0.0039
     21 C         141.9203  139.6728  169.2608 C.ar    1  UNL1        0.0716
     22 C         142.3327  139.6061  167.8202 C.ar    1  UNL1        0.0084
     23 C         142.9362  139.4549  170.3426 C.3     1  UNL1        0.4186
     24 F         143.9522  139.2370  171.4245 F       1  UNL1       -0.1659
     25 F         142.6976  137.9759  170.2688 F       1  UNL1       -0.1659
     26 F         143.1748  140.9339  170.4165 F       1  UNL1       -0.1659
     27 O         142.5184  138.7688  158.5412 O.3     1  UNL1       -0.4739
     28 C         142.0064  137.6643  157.6648 C.3     1  UNL1        0.2226
     29 C         142.9645  136.8516  156.8455 C.3     1  UNL1        0.1202
     30 N         142.6843  135.4016  156.5830 N.3     1  UNL1       -0.2653
     31 C         141.6722  135.0088  155.5479 C.3     1  UNL1        0.1047
     32 C         141.3920  133.5588  155.2854 C.3     1  UNL1        0.1595
     33 O         142.1237  132.5016  156.0579 O.3     1  UNL1       -0.3508
     34 C         143.1358  132.8944  157.0931 C.3     1  UNL1        0.1595
     35 C         143.4161  134.3444  157.3556 C.3     1  UNL1        0.1047
@<TRIPOS>BOND
     1     7     8    1
     2     8     9   ar
     3     9    10   ar
     4    10    11   ar
     5    11    12   ar
     6    12     1    1
     7     1     2   ar
     8     2     3   ar
     9     3    13    1
    10    13    14   am
    11    14    15    2
    12    14    17    1
    13    17    18   ar
    14    18    19   ar
    15    19    20   ar
    16    20    21   ar
    17    21    23    1
    18    23    24    1
    19    23    25    1
    20    23    26    1
    21    21    22   ar
    22     3     4   ar
    23     4     5   ar
    24     5     6   ar
    25     6    27    1
    26    27    28    1
    27    28    29    1
    28    29    30    1
    29    30    31    1
    30    31    32    1
    31    32    33    1
    32    33    34    1
    33    34    35    1
    34    12     8   ar
    35     6     1   ar
    36    35    30    1
    37    22    17   ar
    38    13    16    1
@<TRIPOS>MOLECULE
*****
 35 38 0 0 0
SMALL
GASTEIGER

@<TRIPOS>ATOM
      1 C         142.6216  140.8311  160.6252 C.ar    1  UNL1        0.0525
      2 C         142.8167  140.5196  162.0794 C.ar    1  UNL1        0.0192
      3 C         143.2837  141.5909  163.0198 C.ar    1  UNL1        0.0508
      4 C         143.5557  142.9736  162.5058 C.ar    1  UNL1        0.0178
      5 C         143.3606  143.2851  161.0516 C.ar    1  UNL1        0.0382
      6 C         142.8936  142.2138  160.1113 C.ar    1  UNL1        0.1400
      7 C         139.5765  139.6820  160.3867 C.3     1  UNL1        0.1537
      8 N         140.7549  139.2317  159.5752 N.ar    1  UNL1       -0.2487
      9 N         140.7405  138.1741  158.5115 N.ar    1  UNL1       -0.1676
     10 C         142.1313  138.0486  157.9638 C.ar    1  UNL1        0.1217
     11 C         143.0052  139.0286  158.6889 C.ar    1  UNL1        0.0413
     12 C         142.1546  139.7598  159.6848 C.ar    1  UNL1        0.0825
     13 N         143.4788  141.2794  164.4741 N.am    1  UNL1       -0.2804
     14 C         142.3196  141.3671  165.4220 C.2     1  UNL1        0.2495
     15 O         140.9652  141.7663  164.9155 O.2     1  UNL1       -0.2698
     16 H         144.3677  141.0174  164.8065 H       1  UNL1        0.1552
     17 C         142.5146  141.0557  166.8762 C.ar    1  UNL1        0.0536
     18 C         142.3643  139.6467  167.3682 C.ar    1  UNL1        0.0045
     19 C         142.5594  139.3353  168.8226 C.ar    1  UNL1        0.0001
     20 C         142.9047  140.4329  169.7848 C.ar    1  UNL1        0.0039
     21 C         143.0550  141.8419  169.2928 C.ar    1  UNL1        0.0716
     22 C         142.8599  142.1533  167.8386 C.ar    1  UNL1        0.0084
     23 C         143.4003  142.9395  170.2551 C.3     1  UNL1        0.4186
     24 F         143.7456  144.0372  171.2174 F       1  UNL1       -0.1659
     25 F         141.9408  143.2136  170.4662 F       1  UNL1       -0.1659
     26 F         144.8598  142.6654  170.0440 F       1  UNL1       -0.1659
     27 O         142.6985  142.5253  158.6569 O.3     1  UNL1       -0.4739
     28 C         141.3399  142.9052  158.1470 C.3     1  UNL1        0.2226
     29 C         140.7308  144.2178  158.5418 C.3     1  UNL1        0.1202
     30 N         140.1463  144.3915  159.9123 N.3     1  UNL1       -0.2653
     31 C         140.2914  145.7010  160.6291 C.3     1  UNL1        0.1047
     32 C         139.7070  145.8747  161.9997 C.3     1  UNL1        0.1595
     33 O         138.9775  144.7387  162.6533 O.3     1  UNL1       -0.3508
     34 C         138.8324  143.4290  161.9365 C.3     1  UNL1        0.1595
     35 C         139.4168  143.2554  160.5660 C.3     1  UNL1        0.1047
@<TRIPOS>BOND
     1     7     8    1
     2     8     9   ar
     3     9    10   ar
     4    10    11   ar
     5    11    12   ar
     6    12     1    1
     7     1     2   ar
     8     2     3   ar
     9     3    13    1
    10    13    14   am
    11    14    15    2
    12    14    17    1
    13    17    18   ar
    14    18    19   ar
    15    19    20   ar
    16    20    21   ar
    17    21    23    1
    18    23    24    1
    19    23    25    1
    20    23    26    1
    21    21    22   ar
    22     3     4   ar
    23     4     5   ar
    24     5     6   ar
    25     6    27    1
    26    27    28    1
    27    28    29    1
    28    29    30    1
    29    30    31    1
    30    31    32    1
    31    32    33    1
    32    33    34    1
    33    34    35    1
    34    12     8   ar
    35     6     1   ar
    36    35    30    1
    37    22    17   ar
    38    13    16    1
