@<TRIPOS>MOLECULE
*****
 30 34 0 0 0
SMALL
GASTEIGER

@<TRIPOS>ATOM
      1 C         142.6391  143.0133  162.2416 C.ar    1  UNL1        0.1399
      2 C         141.6267  143.8299  162.9888 C.ar    1  UNL1        0.0688
      3 C         140.7208  144.7654  162.2443 C.ar    1  UNL1        0.1344
      4 N         140.8273  144.8844  160.7529 N.ar    1  UNL1       -0.1980
      5 N         140.0755  145.7157  159.7560 N.ar    1  UNL1       -0.1602
      6 C         140.6233  145.4129  158.3929 C.ar    1  UNL1        0.1339
      7 C         141.7137  144.3944  158.5472 C.ar    1  UNL1        0.1250
      8 C         141.8397  144.0677  160.0057 C.ar    1  UNL1        0.1776
      9 N         142.7456  143.1322  160.7502 N.ar    1  UNL1       -0.2107
     10 C         141.6319  139.1404  165.0169 C.ar    1  UNL1        0.0515
     11 C         142.8621  138.4880  165.5745 C.ar    1  UNL1        0.0144
     12 C         144.2174  139.0448  165.2534 C.ar    1  UNL1       -0.0017
     13 C         144.3425  140.2540  164.3747 C.ar    1  UNL1       -0.0067
     14 C         143.1123  140.9064  163.8171 C.ar    1  UNL1        0.0500
     15 C         141.7570  140.3496  164.1383 C.ar    1  UNL1        0.0292
     16 N         143.5450  142.0778  162.9860 N.pl3   1  UNL1       -0.2722
     17 C         145.0426  142.1492  163.0299 C.3     1  UNL1        0.1016
     18 C         145.5355  141.0221  163.8882 C.3     1  UNL1        0.0494
     19 C         138.0233  138.7468  166.6210 C.3     1  UNL1        0.0949
     20 C         139.3786  139.3036  166.2999 C.2     1  UNL1        0.2266
     21 O         139.8360  140.5804  166.9407 O.2     1  UNL1       -0.2748
     22 N         140.2766  138.5836  165.3381 N.am    1  UNL1       -0.2839
     23 H         139.9765  137.7455  164.9175 H       1  UNL1        0.1549
     24 N         139.7084  145.5820  162.9915 N.pl3   1  UNL1       -0.3196
     25 H         139.5579  146.5236  162.7466 H       1  UNL1        0.1481
     26 C         138.9254  144.9641  164.1117 C.3     1  UNL1        0.0705
     27 C         137.9064  143.9741  164.5928 C.3     1  UNL1        0.0212
     28 C         138.5882  144.8839  165.5711 C.3     1  UNL1        0.0212
     29 C         142.5339  143.8059  157.4377 C.1     1  UNL1        0.1052
     30 N         143.3541  143.2173  156.3283 N.1     1  UNL1       -0.1907
@<TRIPOS>BOND
     1    19    20    1
     2    20    21    2
     3    20    22   am
     4    22    10    1
     5    10    11   ar
     6    11    12   ar
     7    12    13   ar
     8    13    14   ar
     9    14    15   ar
    10    14    16    1
    11    16     1    1
    12     1     2   ar
    13     2     3   ar
    14     3    24    1
    15    24    26    1
    16    26    27    1
    17    27    28    1
    18     3     4   ar
    19     4     5   ar
    20     5     6   ar
    21     6     7   ar
    22     7    29    1
    23    29    30    3
    24     7     8   ar
    25     8     9   ar
    26    16    17    1
    27    17    18    1
    28    15    10   ar
    29     9     1   ar
    30    18    13    1
    31    28    26    1
    32     8     4   ar
    33    22    23    1
    34    24    25    1
@<TRIPOS>MOLECULE
*****
 30 34 0 0 0
SMALL
GASTEIGER

@<TRIPOS>ATOM
      1 C         141.1068  142.0218  166.1535 C.ar    1  UNL1        0.1399
      2 C         141.8926  140.9816  165.4114 C.ar    1  UNL1        0.0688
      3 C         142.5758  139.8790  166.1646 C.ar    1  UNL1        0.1344
      4 N         142.4733  139.8164  167.6598 N.ar    1  UNL1       -0.1980
      5 N         143.0350  138.8551  168.6650 N.ar    1  UNL1       -0.1602
      6 C         142.5964  139.3012  170.0283 C.ar    1  UNL1        0.1339
      7 C         141.7636  140.5381  169.8657 C.ar    1  UNL1        0.1250
      8 C         141.6875  140.8565  168.4019 C.ar    1  UNL1        0.1776
      9 N         141.0043  141.9592  167.6487 N.ar    1  UNL1       -0.2107
     10 C         142.1803  144.1024  161.8833 C.ar    1  UNL1        0.0515
     11 C         141.2129  145.1839  161.5031 C.ar    1  UNL1        0.0144
     12 C         140.0657  145.5169  162.4104 C.ar    1  UNL1       -0.0017
     13 C         139.8859  144.7684  163.6977 C.ar    1  UNL1       -0.0067
     14 C         140.8532  143.6869  164.0779 C.ar    1  UNL1        0.0500
     15 C         142.0004  143.3539  163.1707 C.ar    1  UNL1        0.0292
     16 N         140.4235  143.1245  165.4005 N.pl3   1  UNL1       -0.2722
     17 C         139.1906  143.8584  165.8376 C.3     1  UNL1        0.1016
     18 C         138.8583  144.8744  164.7853 C.3     1  UNL1        0.0494
     19 C         144.4151  142.2135  159.2024 C.3     1  UNL1        0.0949
     20 C         143.2679  142.5465  160.1096 C.2     1  UNL1        0.2266
     21 O         142.0611  141.6565  160.1502 O.2     1  UNL1       -0.2748
     22 N         143.3275  143.7694  160.9761 N.am    1  UNL1       -0.2839
     23 H         144.1196  144.3535  160.9494 H       1  UNL1        0.1549
     24 N         143.3616  138.8389  165.4225 N.pl3   1  UNL1       -0.3196
     25 H         143.5869  137.9865  165.8607 H       1  UNL1        0.1481
     26 C         143.8041  139.0973  164.0129 C.3     1  UNL1        0.0705
     27 C         144.5487  139.9380  163.0185 C.3     1  UNL1        0.0212
     28 C         143.8261  138.7041  162.5654 C.3     1  UNL1        0.0212
     29 C         141.1198  141.3195  170.9726 C.1     1  UNL1        0.1052
     30 N         140.4761  142.1008  172.0794 N.1     1  UNL1       -0.1907
@<TRIPOS>BOND
     1    19    20    1
     2    20    21    2
     3    20    22   am
     4    22    10    1
     5    10    11   ar
     6    11    12   ar
     7    12    13   ar
     8    13    14   ar
     9    14    15   ar
    10    14    16    1
    11    16     1    1
    12     1     2   ar
    13     2     3   ar
    14     3    24    1
    15    24    26    1
    16    26    27    1
    17    27    28    1
    18     3     4   ar
    19     4     5   ar
    20     5     6   ar
    21     6     7   ar
    22     7    29    1
    23    29    30    3
    24     7     8   ar
    25     8     9   ar
    26    16    17    1
    27    17    18    1
    28    15    10   ar
    29     9     1   ar
    30    18    13    1
    31    28    26    1
    32     8     4   ar
    33    22    23    1
    34    24    25    1
@<TRIPOS>MOLECULE
*****
 30 34 0 0 0
SMALL
GASTEIGER

@<TRIPOS>ATOM
      1 C         142.8024  142.0181  165.4599 C.ar    1  UNL1        0.1399
      2 C         142.6822  140.5714  165.0822 C.ar    1  UNL1        0.0688
      3 C         142.6537  139.5177  166.1493 C.ar    1  UNL1        0.1344
      4 N         142.7453  139.9105  167.5940 N.ar    1  UNL1       -0.1980
      5 N         142.7428  139.1005  168.8565 N.ar    1  UNL1       -0.1602
      6 C         142.8614  140.0466  170.0145 C.ar    1  UNL1        0.1339
      7 C         142.9372  141.4413  169.4677 C.ar    1  UNL1        0.1250
      8 C         142.8654  141.3572  167.9717 C.ar    1  UNL1        0.1776
      9 N         142.8940  142.4109  166.9047 N.ar    1  UNL1       -0.2107
     10 C         139.8036  142.8362  161.7110 C.ar    1  UNL1        0.0515
     11 C         140.2156  144.0171  160.8829 C.ar    1  UNL1        0.0144
     12 C         141.4399  144.8014  161.2518 C.ar    1  UNL1       -0.0017
     13 C         142.2521  144.4048  162.4489 C.ar    1  UNL1       -0.0067
     14 C         141.8401  143.2240  163.2771 C.ar    1  UNL1        0.0500
     15 C         140.6158  142.4397  162.9081 C.ar    1  UNL1        0.0292
     16 N         142.8310  143.0720  164.3929 N.pl3   1  UNL1       -0.2722
     17 C         143.8554  144.1589  164.2544 C.3     1  UNL1        0.1016
     18 C         143.4976  144.9826  163.0529 C.3     1  UNL1        0.0494
     19 C         137.4933  139.9013  160.3700 C.3     1  UNL1        0.0949
     20 C         138.7176  140.6856  160.7389 C.2     1  UNL1        0.2266
     21 O         140.0801  140.1034  160.5046 O.2     1  UNL1       -0.2748
     22 N         138.5794  142.0519  161.3421 N.am    1  UNL1       -0.2839
     23 H         137.6852  142.4340  161.4958 H       1  UNL1        0.1549
     24 N         142.5335  138.0710  165.7715 N.pl3   1  UNL1       -0.3196
     25 H         143.1312  137.4041  166.1806 H       1  UNL1        0.1481
     26 C         141.5028  137.6402  164.7706 C.3     1  UNL1        0.0705
     27 C         141.1400  137.2295  163.3743 C.3     1  UNL1        0.0212
     28 C         140.0802  137.3049  164.4331 C.3     1  UNL1        0.0212
     29 C         143.0627  142.6992  170.2750 C.1     1  UNL1        0.1052
     30 N         143.1882  143.9572  171.0824 N.1     1  UNL1       -0.1907
@<TRIPOS>BOND
     1    19    20    1
     2    20    21    2
     3    20    22   am
     4    22    10    1
     5    10    11   ar
     6    11    12   ar
     7    12    13   ar
     8    13    14   ar
     9    14    15   ar
    10    14    16    1
    11    16     1    1
    12     1     2   ar
    13     2     3   ar
    14     3    24    1
    15    24    26    1
    16    26    27    1
    17    27    28    1
    18     3     4   ar
    19     4     5   ar
    20     5     6   ar
    21     6     7   ar
    22     7    29    1
    23    29    30    3
    24     7     8   ar
    25     8     9   ar
    26    16    17    1
    27    17    18    1
    28    15    10   ar
    29     9     1   ar
    30    18    13    1
    31    28    26    1
    32     8     4   ar
    33    22    23    1
    34    24    25    1
@<TRIPOS>MOLECULE
*****
 30 34 0 0 0
SMALL
GASTEIGER

@<TRIPOS>ATOM
      1 C         140.9842  140.4868  165.3752 C.ar    1  UNL1        0.1399
      2 C         142.1115  141.3580  164.9056 C.ar    1  UNL1        0.0688
      3 C         142.9677  142.0793  165.9039 C.ar    1  UNL1        0.1344
      4 N         142.6967  141.9296  167.3716 N.ar    1  UNL1       -0.1980
      5 N         143.3664  142.5127  168.5805 N.ar    1  UNL1       -0.1602
      6 C         142.6530  142.0020  169.7971 C.ar    1  UNL1        0.1339
      7 C         141.5425  141.1032  169.3402 C.ar    1  UNL1        0.1250
      8 C         141.5695  141.0585  167.8411 C.ar    1  UNL1        0.1776
      9 N         140.7133  140.3371  166.8429 N.ar    1  UNL1       -0.2107
     10 C         138.8596  142.0510  161.2818 C.ar    1  UNL1        0.0515
     11 C         138.0839  140.9755  160.5809 C.ar    1  UNL1        0.0144
     12 C         138.0280  139.5927  161.1595 C.ar    1  UNL1       -0.0017
     13 C         138.7478  139.2854  162.4391 C.ar    1  UNL1       -0.0067
     14 C         139.5236  140.3610  163.1400 C.ar    1  UNL1        0.0500
     15 C         139.5795  141.7438  162.5614 C.ar    1  UNL1        0.0292
     16 N         140.1280  139.7654  164.3770 N.pl3   1  UNL1       -0.2722
     17 C         139.7257  138.3218  164.4405 C.3     1  UNL1        0.1016
     18 C         138.8727  138.0251  163.2428 C.3     1  UNL1        0.0494
     19 C         140.2434  145.3220  159.5111 C.3     1  UNL1        0.0949
     20 C         140.1875  143.9392  160.0897 C.2     1  UNL1        0.2266
     21 O         141.4038  143.0619  160.0549 O.2     1  UNL1       -0.2748
     22 N         138.9155  143.4338  160.7032 N.am    1  UNL1       -0.2839
     23 H         138.1173  144.0096  160.7260 H       1  UNL1        0.1549
     24 N         144.0949  142.9505  165.4343 N.pl3   1  UNL1       -0.3196
     25 H         144.9726  142.9011  165.8775 H       1  UNL1        0.1481
     26 C         143.8850  143.8966  164.2896 C.3     1  UNL1        0.0705
     27 C         143.2309  145.1197  163.7183 C.3     1  UNL1        0.0212
     28 C         144.1754  144.3126  162.8779 C.3     1  UNL1        0.0212
     29 C         140.5748  140.3767  170.2266 C.1     1  UNL1        0.1052
     30 N         139.6071  139.6502  171.1131 N.1     1  UNL1       -0.1907
@<TRIPOS>BOND
     1    19    20    1
     2    20    21    2
     3    20    22   am
     4    22    10    1
     5    10    11   ar
     6    11    12   ar
     7    12    13   ar
     8    13    14   ar
     9    14    15   ar
    10    14    16    1
    11    16     1    1
    12     1     2   ar
    13     2     3   ar
    14     3    24    1
    15    24    26    1
    16    26    27    1
    17    27    28    1
    18     3     4   ar
    19     4     5   ar
    20     5     6   ar
    21     6     7   ar
    22     7    29    1
    23    29    30    3
    24     7     8   ar
    25     8     9   ar
    26    16    17    1
    27    17    18    1
    28    15    10   ar
    29     9     1   ar
    30    18    13    1
    31    28    26    1
    32     8     4   ar
    33    22    23    1
    34    24    25    1
@<TRIPOS>MOLECULE
*****
 30 34 0 0 0
SMALL
GASTEIGER

@<TRIPOS>ATOM
      1 C         142.2719  142.1824  162.3144 C.ar    1  UNL1        0.1399
      2 C         141.4232  143.1639  163.0669 C.ar    1  UNL1        0.0688
      3 C         140.8810  144.3760  162.3692 C.ar    1  UNL1        0.1344
      4 N         141.1874  144.6065  160.9191 N.ar    1  UNL1       -0.1980
      5 N         140.7957  145.7020  159.9722 N.ar    1  UNL1       -0.1602
      6 C         141.4023  145.3974  158.6346 C.ar    1  UNL1        0.1339
      7 C         142.1689  144.1137  158.7547 C.ar    1  UNL1        0.1250
      8 C         142.0361  143.6250  160.1666 C.ar    1  UNL1        0.1776
      9 N         142.5783  142.4129  160.8643 N.ar    1  UNL1       -0.2107
     10 C         142.0527  140.8339  166.9888 C.ar    1  UNL1        0.0515
     11 C         142.7408  139.5271  167.2506 C.ar    1  UNL1        0.0144
     12 C         143.3993  138.7873  166.1241 C.ar    1  UNL1       -0.0017
     13 C         143.3697  139.3543  164.7357 C.ar    1  UNL1       -0.0067
     14 C         142.6816  140.6612  164.4739 C.ar    1  UNL1        0.0500
     15 C         142.0231  141.4010  165.6005 C.ar    1  UNL1        0.0292
     16 N         142.8142  140.9703  163.0121 N.pl3   1  UNL1       -0.2722
     17 C         143.5843  139.8544  162.3704 C.3     1  UNL1        0.1016
     18 C         143.9276  138.8557  163.4357 C.3     1  UNL1        0.0494
     19 C         141.5425  143.2374  170.1054 C.3     1  UNL1        0.0949
     20 C         142.2010  142.4976  168.9788 C.2     1  UNL1        0.2266
     21 O         143.6663  142.6817  168.7158 O.2     1  UNL1       -0.2748
     22 N         141.3942  141.5737  168.1154 N.am    1  UNL1       -0.2839
     23 H         140.4326  141.4529  168.2880 H       1  UNL1        0.1549
     24 N         140.0323  145.3576  163.1217 N.pl3   1  UNL1       -0.3196
     25 H         140.1020  146.3199  162.9262 H       1  UNL1        0.1481
     26 C         139.0775  144.8729  164.1720 C.3     1  UNL1        0.0705
     27 C         137.9126  144.0175  164.5735 C.3     1  UNL1        0.0212
     28 C         138.5884  144.8890  165.5900 C.3     1  UNL1        0.0212
     29 C         142.9340  143.4376  157.6558 C.1     1  UNL1        0.1052
     30 N         143.6991  142.7614  156.5570 N.1     1  UNL1       -0.1907
@<TRIPOS>BOND
     1    19    20    1
     2    20    21    2
     3    20    22   am
     4    22    10    1
     5    10    11   ar
     6    11    12   ar
     7    12    13   ar
     8    13    14   ar
     9    14    15   ar
    10    14    16    1
    11    16     1    1
    12     1     2   ar
    13     2     3   ar
    14     3    24    1
    15    24    26    1
    16    26    27    1
    17    27    28    1
    18     3     4   ar
    19     4     5   ar
    20     5     6   ar
    21     6     7   ar
    22     7    29    1
    23    29    30    3
    24     7     8   ar
    25     8     9   ar
    26    16    17    1
    27    17    18    1
    28    15    10   ar
    29     9     1   ar
    30    18    13    1
    31    28    26    1
    32     8     4   ar
    33    22    23    1
    34    24    25    1
@<TRIPOS>MOLECULE
*****
 30 34 0 0 0
SMALL
GASTEIGER

@<TRIPOS>ATOM
      1 C         142.6094  140.0612  161.5679 C.ar    1  UNL1        0.1399
      2 C         143.2894  141.2726  162.1337 C.ar    1  UNL1        0.0688
      3 C         144.1260  142.1460  161.2466 C.ar    1  UNL1        0.1344
      4 N         144.2828  141.8081  159.7936 N.ar    1  UNL1       -0.1980
      5 N         145.0384  142.4765  158.6834 N.ar    1  UNL1       -0.1602
      6 C         144.8254  141.6781  157.4315 C.ar    1  UNL1        0.1339
      7 C         143.9382  140.5163  157.7679 C.ar    1  UNL1        0.1250
      8 C         143.6028  140.5967  159.2277 C.ar    1  UNL1        0.1776
      9 N         142.7662  139.7233  160.1149 N.ar    1  UNL1       -0.2107
     10 C         138.8689  141.1453  164.4919 C.ar    1  UNL1        0.0515
     11 C         138.3203  139.9450  165.2047 C.ar    1  UNL1        0.0144
     12 C         138.9285  138.5932  164.9747 C.ar    1  UNL1       -0.0017
     13 C         140.0853  138.4418  164.0320 C.ar    1  UNL1       -0.0067
     14 C         140.6340  139.6422  163.3192 C.ar    1  UNL1        0.0500
     15 C         140.0258  140.9939  163.5492 C.ar    1  UNL1        0.0292
     16 N         141.7728  139.1878  162.4550 N.pl3   1  UNL1       -0.2722
     17 C         141.9279  137.7066  162.6337 C.3     1  UNL1        0.1016
     18 C         140.8850  137.2456  163.6084 C.3     1  UNL1        0.0494
     19 C         138.4735  144.9470  165.5599 C.3     1  UNL1        0.0949
     20 C         139.0817  143.5953  165.3299 C.2     1  UNL1        0.2266
     21 O         140.5110  143.3418  165.7082 O.2     1  UNL1       -0.2748
     22 N         138.2607  142.4971  164.7218 N.am    1  UNL1       -0.2839
     23 H         137.3227  142.6635  164.4735 H       1  UNL1        0.1549
     24 N         144.8060  143.3574  161.8124 N.pl3   1  UNL1       -0.3196
     25 H         145.6135  143.7163  161.3785 H       1  UNL1        0.1481
     26 C         144.2556  144.0220  163.0393 C.3     1  UNL1        0.0705
     27 C         144.0626  144.0484  164.5266 C.3     1  UNL1        0.0212
     28 C         143.4953  145.1467  163.6772 C.3     1  UNL1        0.0212
     29 C         143.4687  139.4598  156.8122 C.1     1  UNL1        0.1052
     30 N         142.9993  138.4032  155.8565 N.1     1  UNL1       -0.1907
@<TRIPOS>BOND
     1    19    20    1
     2    20    21    2
     3    20    22   am
     4    22    10    1
     5    10    11   ar
     6    11    12   ar
     7    12    13   ar
     8    13    14   ar
     9    14    15   ar
    10    14    16    1
    11    16     1    1
    12     1     2   ar
    13     2     3   ar
    14     3    24    1
    15    24    26    1
    16    26    27    1
    17    27    28    1
    18     3     4   ar
    19     4     5   ar
    20     5     6   ar
    21     6     7   ar
    22     7    29    1
    23    29    30    3
    24     7     8   ar
    25     8     9   ar
    26    16    17    1
    27    17    18    1
    28    15    10   ar
    29     9     1   ar
    30    18    13    1
    31    28    26    1
    32     8     4   ar
    33    22    23    1
    34    24    25    1
@<TRIPOS>MOLECULE
*****
 30 34 0 0 0
SMALL
GASTEIGER

@<TRIPOS>ATOM
      1 C         141.7662  142.4128  160.8044 C.ar    1  UNL1        0.1399
      2 C         142.6864  141.4828  161.5381 C.ar    1  UNL1        0.0688
      3 C         143.4814  140.4616  160.7798 C.ar    1  UNL1        0.1344
      4 N         143.3563  140.3704  159.2878 N.ar    1  UNL1       -0.1980
      5 N         144.0085  139.4722  158.2789 N.ar    1  UNL1       -0.1602
      6 C         143.4913  139.8471  156.9217 C.ar    1  UNL1        0.1339
      7 C         142.5195  140.9770  157.0918 C.ar    1  UNL1        0.1250
      8 C         142.4361  141.3004  158.5541 C.ar    1  UNL1        0.1776
      9 N         141.6411  142.3216  159.3125 N.ar    1  UNL1       -0.2107
     10 C         138.3262  141.8829  164.2106 C.ar    1  UNL1        0.0515
     11 C         137.7905  143.1935  164.7058 C.ar    1  UNL1        0.0144
     12 C         138.3229  144.4802  164.1481 C.ar    1  UNL1       -0.0017
     13 C         139.3910  144.4563  163.0953 C.ar    1  UNL1       -0.0067
     14 C         139.9267  143.1457  162.6001 C.ar    1  UNL1        0.0500
     15 C         139.3944  141.8590  163.1578 C.ar    1  UNL1        0.0292
     16 N         140.9712  143.4340  161.5627 N.pl3   1  UNL1       -0.2722
     17 C         141.0809  144.9228  161.4168 C.3     1  UNL1        0.1016
     18 C         140.1043  145.5546  162.3640 C.3     1  UNL1        0.0494
     19 C         137.9573  138.6464  166.4775 C.3     1  UNL1        0.0949
     20 C         138.4896  139.9331  165.9198 C.2     1  UNL1        0.2266
     21 O         139.7179  140.5566  166.5138 O.2     1  UNL1       -0.2748
     22 N         137.7939  140.5962  164.7683 N.am    1  UNL1       -0.2839
     23 H         136.9878  140.1869  164.3785 H       1  UNL1        0.1549
     24 N         144.4017  139.5316  161.5135 N.pl3   1  UNL1       -0.3196
     25 H         145.0188  138.9520  161.0111 H       1  UNL1        0.1481
     26 C         144.3816  139.4846  163.0125 C.3     1  UNL1        0.0705
     27 C         145.0232  139.8012  164.3309 C.3     1  UNL1        0.0212
     28 C         143.7050  139.0866  164.2908 C.3     1  UNL1        0.0212
     29 C         141.7638  141.6631  155.9925 C.1     1  UNL1        0.1052
     30 N         141.0082  142.3491  154.8933 N.1     1  UNL1       -0.1907
@<TRIPOS>BOND
     1    19    20    1
     2    20    21    2
     3    20    22   am
     4    22    10    1
     5    10    11   ar
     6    11    12   ar
     7    12    13   ar
     8    13    14   ar
     9    14    15   ar
    10    14    16    1
    11    16     1    1
    12     1     2   ar
    13     2     3   ar
    14     3    24    1
    15    24    26    1
    16    26    27    1
    17    27    28    1
    18     3     4   ar
    19     4     5   ar
    20     5     6   ar
    21     6     7   ar
    22     7    29    1
    23    29    30    3
    24     7     8   ar
    25     8     9   ar
    26    16    17    1
    27    17    18    1
    28    15    10   ar
    29     9     1   ar
    30    18    13    1
    31    28    26    1
    32     8     4   ar
    33    22    23    1
    34    24    25    1
@<TRIPOS>MOLECULE
*****
 30 34 0 0 0
SMALL
GASTEIGER

@<TRIPOS>ATOM
      1 C         139.7562  140.0572  161.7516 C.ar    1  UNL1        0.1399
      2 C         139.0812  141.2890  162.2780 C.ar    1  UNL1        0.0688
      3 C         138.4488  142.2618  161.3274 C.ar    1  UNL1        0.1344
      4 N         138.4914  142.0029  159.8505 N.ar    1  UNL1       -0.1980
      5 N         137.9590  142.7756  158.6803 N.ar    1  UNL1       -0.1602
      6 C         138.3050  142.0214  157.4307 C.ar    1  UNL1        0.1339
      7 C         139.0513  140.7826  157.8287 C.ar    1  UNL1        0.1250
      8 C         139.1665  140.7712  159.3242 C.ar    1  UNL1        0.1776
      9 N         139.7989  139.7983  160.2747 N.ar    1  UNL1       -0.2107
     10 C         142.7808  140.7758  165.5002 C.ar    1  UNL1        0.0515
     11 C         143.1707  139.5003  166.1864 C.ar    1  UNL1        0.0144
     12 C         142.6324  138.1894  165.6949 C.ar    1  UNL1       -0.0017
     13 C         141.7043  138.1539  164.5171 C.ar    1  UNL1       -0.0067
     14 C         141.3144  139.4294  163.8309 C.ar    1  UNL1        0.0500
     15 C         141.8527  140.7404  164.3224 C.ar    1  UNL1        0.0292
     16 N         140.3887  139.0843  162.7021 N.pl3   1  UNL1       -0.2722
     17 C         140.2065  137.5955  162.6908 C.3     1  UNL1        0.1016
     18 C         141.0195  137.0204  163.8126 C.3     1  UNL1        0.0494
     19 C         144.8657  144.1487  165.6651 C.3     1  UNL1        0.0949
     20 C         144.3274  142.8377  165.1736 C.2     1  UNL1        0.2266
     21 O         144.7975  142.2776  163.8638 O.2     1  UNL1       -0.2748
     22 N         143.3191  142.0868  165.9917 N.am    1  UNL1       -0.2839
     23 H         143.0105  142.4544  166.8513 H       1  UNL1        0.1549
     24 N         137.7737  143.4935  161.8538 N.pl3   1  UNL1       -0.3196
     25 H         137.1087  143.9645  161.3014 H       1  UNL1        0.1481
     26 C         138.1119  144.0077  163.2216 C.3     1  UNL1        0.0705
     27 C         139.0373  144.7528  164.1373 C.3     1  UNL1        0.0212
     28 C         137.7721  144.1533  164.6754 C.3     1  UNL1        0.0212
     29 C         139.5881  139.7385  156.8950 C.1     1  UNL1        0.1052
     30 N         140.1249  138.6944  155.9613 N.1     1  UNL1       -0.1907
@<TRIPOS>BOND
     1    19    20    1
     2    20    21    2
     3    20    22   am
     4    22    10    1
     5    10    11   ar
     6    11    12   ar
     7    12    13   ar
     8    13    14   ar
     9    14    15   ar
    10    14    16    1
    11    16     1    1
    12     1     2   ar
    13     2     3   ar
    14     3    24    1
    15    24    26    1
    16    26    27    1
    17    27    28    1
    18     3     4   ar
    19     4     5   ar
    20     5     6   ar
    21     6     7   ar
    22     7    29    1
    23    29    30    3
    24     7     8   ar
    25     8     9   ar
    26    16    17    1
    27    17    18    1
    28    15    10   ar
    29     9     1   ar
    30    18    13    1
    31    28    26    1
    32     8     4   ar
    33    22    23    1
    34    24    25    1
@<TRIPOS>MOLECULE
*****
 30 34 0 0 0
SMALL
GASTEIGER

@<TRIPOS>ATOM
      1 C         139.9883  141.3316  163.4888 C.ar    1  UNL1        0.1399
      2 C         139.0627  141.9121  162.4611 C.ar    1  UNL1        0.0688
      3 C         139.6220  142.6089  161.2563 C.ar    1  UNL1        0.1344
      4 N         141.1070  142.7252  161.0791 N.ar    1  UNL1       -0.1980
      5 N         141.9434  143.3510  160.0027 N.ar    1  UNL1       -0.1602
      6 C         143.3860  143.1572  160.3652 C.ar    1  UNL1        0.1339
      7 C         143.4412  142.4117  161.6656 C.ar    1  UNL1        0.1250
      8 C         142.0327  142.1446  162.1068 C.ar    1  UNL1        0.1776
      9 N         141.4733  141.4479  163.3116 N.ar    1  UNL1       -0.2107
     10 C         141.1742  141.6707  168.1999 C.ar    1  UNL1        0.0515
     11 C         140.3438  140.7793  169.0749 C.ar    1  UNL1        0.0144
     12 C         139.2825  139.9103  168.4680 C.ar    1  UNL1       -0.0017
     13 C         139.0516  139.9327  166.9861 C.ar    1  UNL1       -0.0067
     14 C         139.8820  140.8241  166.1111 C.ar    1  UNL1        0.0500
     15 C         140.9433  141.6932  166.7180 C.ar    1  UNL1        0.0292
     16 N         139.4291  140.6348  164.6936 N.pl3   1  UNL1       -0.2722
     17 C         138.3187  139.6263  164.6926 C.3     1  UNL1        0.1016
     18 C         138.0854  139.1924  166.1094 C.3     1  UNL1        0.0494
     19 C         144.4263  142.7880  170.1813 C.3     1  UNL1        0.0949
     20 C         143.3650  141.9190  169.5744 C.2     1  UNL1        0.2266
     21 O         143.4330  140.4291  169.7350 O.2     1  UNL1       -0.2748
     22 N         142.2356  142.5397  168.8069 N.am    1  UNL1       -0.2839
     23 H         142.1909  143.5176  168.7015 H       1  UNL1        0.1549
     24 N         138.6964  143.1895  160.2286 N.pl3   1  UNL1       -0.3196
     25 H         138.1698  143.9943  160.4391 H       1  UNL1        0.1481
     26 C         138.5729  142.5438  158.8804 C.3     1  UNL1        0.0705
     27 C         138.9030  142.5177  157.4174 C.3     1  UNL1        0.0212
     28 C         138.0287  141.4516  158.0080 C.3     1  UNL1        0.0212
     29 C         144.6863  142.0046  162.3964 C.1     1  UNL1        0.1052
     30 N         145.9313  141.5975  163.1272 N.1     1  UNL1       -0.1907
@<TRIPOS>BOND
     1    19    20    1
     2    20    21    2
     3    20    22   am
     4    22    10    1
     5    10    11   ar
     6    11    12   ar
     7    12    13   ar
     8    13    14   ar
     9    14    15   ar
    10    14    16    1
    11    16     1    1
    12     1     2   ar
    13     2     3   ar
    14     3    24    1
    15    24    26    1
    16    26    27    1
    17    27    28    1
    18     3     4   ar
    19     4     5   ar
    20     5     6   ar
    21     6     7   ar
    22     7    29    1
    23    29    30    3
    24     7     8   ar
    25     8     9   ar
    26    16    17    1
    27    17    18    1
    28    15    10   ar
    29     9     1   ar
    30    18    13    1
    31    28    26    1
    32     8     4   ar
    33    22    23    1
    34    24    25    1
