@<TRIPOS>MOLECULE
*****
 44 49 0 0 0
SMALL
GASTEIGER

@<TRIPOS>ATOM
      1 C         142.1216  144.1471  156.8371 C.ar    1  UNL1        0.0547
      2 C         140.9026  145.0050  156.6699 C.ar    1  UNL1        0.0069
      3 C         140.2402  145.6095  157.8723 C.ar    1  UNL1        0.0311
      4 C         140.7968  145.3562  159.2419 C.ar    1  UNL1        0.1535
      5 F         140.1344  145.9607  160.4443 F       1  UNL1       -0.2029
      6 C         142.0159  144.4983  159.4091 C.ar    1  UNL1        0.0785
      7 C         142.6783  143.8938  158.2068 C.ar    1  UNL1        0.0215
      8 N         143.9966  144.1946  155.0393 N.am    1  UNL1       -0.2969
      9 C         142.7841  143.5426  155.6347 C.2     1  UNL1        0.2461
     10 O         142.2339  142.2860  155.0278 O.2     1  UNL1       -0.2701
     11 H         144.3577  145.0194  155.4376 H       1  UNL1        0.1501
     12 C         144.6590  143.5901  153.8369 C.3     1  UNL1        0.1178
     13 C         146.6577  142.1264  154.6194 C.ar    1  UNL1        0.0455
     14 C         148.1304  141.8415  154.6382 C.ar    1  UNL1        0.0143
     15 C         149.0768  142.7356  153.8932 C.ar    1  UNL1        0.0012
     16 C         148.5506  143.9145  153.1295 C.ar    1  UNL1       -0.0002
     17 C         147.0780  144.1994  153.1107 C.ar    1  UNL1       -0.0014
     18 C         146.1316  143.3053  153.8556 C.ar    1  UNL1        0.0108
     19 C         142.8721  138.5500  157.5990 C.3     1  UNL1        0.0897
     20 N         143.8185  139.4441  156.8541 N.3     1  UNL1       -0.2686
     21 C         144.4855  140.5861  157.5619 C.3     1  UNL1        0.0938
     22 C         145.4319  141.4801  156.8170 C.3     1  UNL1        0.1081
     23 N         145.7113  141.2323  155.3643 N.pl3   1  UNL1       -0.3049
     24 C         145.0444  140.0903  154.6564 C.3     1  UNL1        0.1081
     25 C         144.0980  139.1962  155.4013 C.3     1  UNL1        0.0938
     26 N         142.5725  144.2450  160.7788 N.am    1  UNL1       -0.2774
     27 C         142.1499  143.0278  161.5468 C.2     1  UNL1        0.2674
     28 O         141.1706  142.0639  160.9453 O.2     1  UNL1       -0.2682
     29 H         143.2152  144.8776  161.1737 H       1  UNL1        0.1553
     30 C         142.7066  142.7746  162.9165 C.ar    1  UNL1        0.1386
     31 C         144.1461  142.5159  163.2492 C.ar    1  UNL1        0.1226
     32 N         144.2505  142.3171  164.7323 N.ar    1  UNL1       -0.2247
     33 C         142.8756  142.4528  165.3163 C.ar    1  UNL1        0.1480
     34 C         142.3692  142.3555  166.7248 C.ar    1  UNL1        0.0389
     35 C         140.9085  142.5410  167.0112 C.ar    1  UNL1        0.0218
     36 C         139.9542  142.8238  165.8890 C.ar    1  UNL1        0.0206
     37 C         140.4606  142.9211  164.4803 C.ar    1  UNL1        0.0816
     38 N         141.9213  142.7356  164.1940 N.ar    1  UNL1       -0.2850
     39 C         140.4021  142.4437  168.4197 C.ar    1  UNL1        0.0796
     40 C         140.4506  143.5317  169.4513 C.ar    1  UNL1        0.0412
     41 C         139.8367  143.0016  170.7132 C.ar    1  UNL1        0.1217
     42 N         139.4089  141.5862  170.4615 N.ar    1  UNL1       -0.1676
     43 N         139.7583  141.2413  169.0441 N.ar    1  UNL1       -0.2488
     44 C         139.5079  139.9253  168.3695 C.3     1  UNL1        0.1537
@<TRIPOS>BOND
     1    19    20    1
     2    20    21    1
     3    21    22    1
     4    22    23    1
     5    23    13    1
     6    13    14   ar
     7    14    15   ar
     8    15    16   ar
     9    16    17   ar
    10    17    18   ar
    11    18    12    1
    12    12     8    1
    13     8     9   am
    14     9    10    2
    15     9     1    1
    16     1     2   ar
    17     2     3   ar
    18     3     4   ar
    19     4     5    1
    20     4     6   ar
    21     6    26    1
    22    26    27   am
    23    27    28    2
    24    27    30    1
    25    30    31   ar
    26    31    32   ar
    27    32    33   ar
    28    33    34   ar
    29    34    35   ar
    30    35    39    1
    31    39    40   ar
    32    40    41   ar
    33    41    42   ar
    34    42    43   ar
    35    43    44    1
    36    35    36   ar
    37    36    37   ar
    38    37    38   ar
    39     6     7   ar
    40    23    24    1
    41    24    25    1
    42    25    20    1
    43    18    13   ar
    44     7     1   ar
    45    38    30   ar
    46    38    33   ar
    47    43    39   ar
    48     8    11    1
    49    26    29    1
@<TRIPOS>MOLECULE
*****
 44 49 0 0 0
SMALL
GASTEIGER

@<TRIPOS>ATOM
      1 C         140.3679  143.2977  162.9587 C.ar    1  UNL1        0.0547
      2 C         140.0505  144.7599  162.8528 C.ar    1  UNL1        0.0069
      3 C         140.3264  145.4967  161.5757 C.ar    1  UNL1        0.0311
      4 C         140.9198  144.7714  160.4045 C.ar    1  UNL1        0.1535
      5 F         141.1957  145.5082  159.1274 F       1  UNL1       -0.2029
      6 C         141.2371  143.3092  160.5104 C.ar    1  UNL1        0.0785
      7 C         140.9612  142.5724  161.7875 C.ar    1  UNL1        0.0215
      8 N         140.3225  143.2354  165.5556 N.am    1  UNL1       -0.2969
      9 C         140.0919  142.5609  164.2358 C.2     1  UNL1        0.2461
     10 O         139.5855  141.1496  164.1930 O.2     1  UNL1       -0.2701
     11 H         140.6549  144.1616  165.5837 H       1  UNL1        0.1501
     12 C         140.0465  142.4986  166.8327 C.3     1  UNL1        0.1178
     13 C         142.3589  142.0566  167.9314 C.ar    1  UNL1        0.0455
     14 C         143.2922  142.2003  169.0970 C.ar    1  UNL1        0.0143
     15 C         142.8461  142.9299  170.3294 C.ar    1  UNL1        0.0012
     16 C         141.4668  143.5156  170.3962 C.ar    1  UNL1       -0.0002
     17 C         140.5336  143.3719  169.2307 C.ar    1  UNL1       -0.0014
     18 C         140.9797  142.6423  167.9983 C.ar    1  UNL1        0.0108
     19 C         144.1432  139.1384  163.0019 C.3     1  UNL1        0.0897
     20 N         143.6972  139.8679  164.2342 N.3     1  UNL1       -0.2686
     21 C         144.0127  141.3251  164.3987 C.3     1  UNL1        0.0938
     22 C         143.5667  142.0546  165.6311 C.3     1  UNL1        0.1081
     23 N         142.8050  141.3270  166.6990 N.pl3   1  UNL1       -0.3049
     24 C         142.4894  139.8698  166.5346 C.3     1  UNL1        0.1081
     25 C         142.9355  139.1403  165.3022 C.3     1  UNL1        0.0938
     26 N         141.8305  142.5838  159.3392 N.am    1  UNL1       -0.2774
     27 C         143.2228  142.0324  159.4255 C.2     1  UNL1        0.2674
     28 O         144.0218  142.2063  160.6830 O.2     1  UNL1       -0.2682
     29 H         141.3061  142.4697  158.5138 H       1  UNL1        0.1553
     30 C         143.8160  141.3070  158.2542 C.ar    1  UNL1        0.1386
     31 C         143.2424  140.0925  157.5867 C.ar    1  UNL1        0.1226
     32 N         144.1590  139.7038  156.4647 N.ar    1  UNL1       -0.2247
     33 C         145.2991  140.6781  156.4388 C.ar    1  UNL1        0.1480
     34 C         146.5029  140.7911  155.5510 C.ar    1  UNL1        0.0389
     35 C         147.4947  141.8950  155.7692 C.ar    1  UNL1        0.0218
     36 C         147.2828  142.8859  156.8752 C.ar    1  UNL1        0.0206
     37 C         146.0790  142.7730  157.7630 C.ar    1  UNL1        0.0816
     38 N         145.0871  141.6690  157.5448 N.ar    1  UNL1       -0.2850
     39 C         148.6985  142.0080  154.8815 C.ar    1  UNL1        0.0796
     40 C         150.1052  141.6420  155.2524 C.ar    1  UNL1        0.0412
     41 C         150.9830  141.9147  154.0671 C.ar    1  UNL1        0.1217
     42 N         150.1190  142.4492  152.9635 N.ar    1  UNL1       -0.1676
     43 N         148.7071  142.5069  153.4669 N.ar    1  UNL1       -0.2488
     44 C         147.5135  142.9803  152.6917 C.3     1  UNL1        0.1537
@<TRIPOS>BOND
     1    19    20    1
     2    20    21    1
     3    21    22    1
     4    22    23    1
     5    23    13    1
     6    13    14   ar
     7    14    15   ar
     8    15    16   ar
     9    16    17   ar
    10    17    18   ar
    11    18    12    1
    12    12     8    1
    13     8     9   am
    14     9    10    2
    15     9     1    1
    16     1     2   ar
    17     2     3   ar
    18     3     4   ar
    19     4     5    1
    20     4     6   ar
    21     6    26    1
    22    26    27   am
    23    27    28    2
    24    27    30    1
    25    30    31   ar
    26    31    32   ar
    27    32    33   ar
    28    33    34   ar
    29    34    35   ar
    30    35    39    1
    31    39    40   ar
    32    40    41   ar
    33    41    42   ar
    34    42    43   ar
    35    43    44    1
    36    35    36   ar
    37    36    37   ar
    38    37    38   ar
    39     6     7   ar
    40    23    24    1
    41    24    25    1
    42    25    20    1
    43    18    13   ar
    44     7     1   ar
    45    38    30   ar
    46    38    33   ar
    47    43    39   ar
    48     8    11    1
    49    26    29    1
@<TRIPOS>MOLECULE
*****
 44 49 0 0 0
SMALL
GASTEIGER

@<TRIPOS>ATOM
      1 C         139.6394  144.1617  162.9190 C.ar    1  UNL1        0.0547
      2 C         139.4476  145.6278  162.6669 C.ar    1  UNL1        0.0069
      3 C         139.8026  146.2121  161.3318 C.ar    1  UNL1        0.0311
      4 C         140.3494  145.3302  160.2486 C.ar    1  UNL1        0.1535
      5 F         140.7044  145.9145  158.9135 F       1  UNL1       -0.2029
      6 C         140.5412  143.8641  160.5007 C.ar    1  UNL1        0.0785
      7 C         140.1862  143.2798  161.8358 C.ar    1  UNL1        0.0215
      8 N         140.2972  142.7733  165.0141 N.am    1  UNL1       -0.2969
      9 C         139.2844  143.5774  164.2541 C.2     1  UNL1        0.2461
     10 O         137.9165  143.7973  164.8292 O.2     1  UNL1       -0.2701
     11 H         141.1950  142.6291  164.6366 H       1  UNL1        0.1501
     12 C         139.9422  142.1890  166.3492 C.3     1  UNL1        0.1178
     13 C         142.2407  141.8008  167.4964 C.ar    1  UNL1        0.0455
     14 C         143.1572  141.9951  168.6679 C.ar    1  UNL1        0.0143
     15 C         142.6918  142.7722  169.8635 C.ar    1  UNL1        0.0012
     16 C         141.3098  143.3549  169.8876 C.ar    1  UNL1       -0.0002
     17 C         140.3932  143.1605  168.7162 C.ar    1  UNL1       -0.0014
     18 C         140.8587  142.3835  167.5206 C.ar    1  UNL1        0.0108
     19 C         144.1024  138.6924  162.7140 C.3     1  UNL1        0.0897
     20 N         143.6370  139.4695  163.9095 N.3     1  UNL1       -0.2686
     21 C         144.0472  140.9023  164.0789 C.3     1  UNL1        0.0938
     22 C         143.5818  141.6794  165.2745 C.3     1  UNL1        0.1081
     23 N         142.7061  141.0237  166.3008 N.pl3   1  UNL1       -0.3049
     24 C         142.2958  139.5908  166.1314 C.3     1  UNL1        0.1081
     25 C         142.7613  138.8138  164.9358 C.3     1  UNL1        0.0938
     26 N         141.0880  142.9822  159.4175 N.am    1  UNL1       -0.2774
     27 C         142.5698  142.7938  159.2803 C.2     1  UNL1        0.2674
     28 O         143.5048  143.4872  160.2263 O.2     1  UNL1       -0.2682
     29 H         140.4744  142.5270  158.7966 H       1  UNL1        0.1553
     30 C         143.1166  141.9118  158.1971 C.ar    1  UNL1        0.1386
     31 C         144.1023  142.3188  157.1424 C.ar    1  UNL1        0.1226
     32 N         144.3685  141.1265  156.2719 N.ar    1  UNL1       -0.2247
     33 C         143.5472  139.9827  156.7886 C.ar    1  UNL1        0.1480
     34 C         143.4039  138.5619  156.3295 C.ar    1  UNL1        0.0389
     35 C         142.4868  137.6264  157.0602 C.ar    1  UNL1        0.0218
     36 C         141.7131  138.1117  158.2501 C.ar    1  UNL1        0.0206
     37 C         141.8564  139.5326  158.7093 C.ar    1  UNL1        0.0816
     38 N         142.7734  140.4681  157.9786 N.ar    1  UNL1       -0.2850
     39 C         142.3435  136.2057  156.6011 C.ar    1  UNL1        0.0796
     40 C         143.2595  135.0699  156.9493 C.ar    1  UNL1        0.0412
     41 C         142.7411  133.8335  156.2765 C.ar    1  UNL1        0.1217
     42 N         141.5049  134.2051  155.5125 N.ar    1  UNL1       -0.1676
     43 N         141.2592  135.6712  155.7131 N.ar    1  UNL1       -0.2488
     44 C         140.1278  136.4636  155.1284 C.3     1  UNL1        0.1537
@<TRIPOS>BOND
     1    19    20    1
     2    20    21    1
     3    21    22    1
     4    22    23    1
     5    23    13    1
     6    13    14   ar
     7    14    15   ar
     8    15    16   ar
     9    16    17   ar
    10    17    18   ar
    11    18    12    1
    12    12     8    1
    13     8     9   am
    14     9    10    2
    15     9     1    1
    16     1     2   ar
    17     2     3   ar
    18     3     4   ar
    19     4     5    1
    20     4     6   ar
    21     6    26    1
    22    26    27   am
    23    27    28    2
    24    27    30    1
    25    30    31   ar
    26    31    32   ar
    27    32    33   ar
    28    33    34   ar
    29    34    35   ar
    30    35    39    1
    31    39    40   ar
    32    40    41   ar
    33    41    42   ar
    34    42    43   ar
    35    43    44    1
    36    35    36   ar
    37    36    37   ar
    38    37    38   ar
    39     6     7   ar
    40    23    24    1
    41    24    25    1
    42    25    20    1
    43    18    13   ar
    44     7     1   ar
    45    38    30   ar
    46    38    33   ar
    47    43    39   ar
    48     8    11    1
    49    26    29    1
@<TRIPOS>MOLECULE
*****
 44 49 0 0 0
SMALL
GASTEIGER

@<TRIPOS>ATOM
      1 C         143.7356  140.5135  159.1799 C.ar    1  UNL1        0.0547
      2 C         143.7745  141.5104  158.0598 C.ar    1  UNL1        0.0069
      3 C         143.3201  141.1136  156.6865 C.ar    1  UNL1        0.0311
      4 C         142.8268  139.7198  156.4332 C.ar    1  UNL1        0.1535
      5 F         142.3724  139.3230  155.0598 F       1  UNL1       -0.2029
      6 C         142.7879  138.7229  157.5533 C.ar    1  UNL1        0.0785
      7 C         143.2423  139.1197  158.9266 C.ar    1  UNL1        0.0215
      8 N         144.2958  139.8774  161.6358 N.am    1  UNL1       -0.2969
      9 C         144.1900  140.9103  160.5532 C.2     1  UNL1        0.2461
     10 O         144.5387  142.3400  160.8439 O.2     1  UNL1       -0.2701
     11 H         144.0669  138.9391  161.4450 H       1  UNL1        0.1501
     12 C         144.7502  140.2742  163.0091 C.3     1  UNL1        0.1178
     13 C         142.6584  140.6661  164.4993 C.ar    1  UNL1        0.0455
     14 C         141.8304  140.3049  165.6969 C.ar    1  UNL1        0.0143
     15 C         142.2663  139.1908  166.6017 C.ar    1  UNL1        0.0012
     16 C         143.5301  138.4377  166.3089 C.ar    1  UNL1       -0.0002
     17 C         144.3581  138.7988  165.1114 C.ar    1  UNL1       -0.0014
     18 C         143.9223  139.9130  164.2066 C.ar    1  UNL1        0.0108
     19 C         140.9150  145.1227  160.8801 C.3     1  UNL1        0.0897
     20 N         141.3509  144.0086  161.7849 N.3     1  UNL1       -0.2686
     21 C         142.3522  144.2719  162.8703 C.3     1  UNL1        0.0938
     22 C         142.7880  143.1578  163.7750 C.3     1  UNL1        0.1081
     23 N         142.2226  141.7802  163.5946 N.pl3   1  UNL1       -0.3049
     24 C         141.2212  141.5168  162.5092 C.3     1  UNL1        0.1081
     25 C         140.7854  142.6310  161.6044 C.3     1  UNL1        0.0938
     26 N         142.2946  137.3292  157.3000 N.am    1  UNL1       -0.2774
     27 C         143.0955  136.3943  156.4429 C.2     1  UNL1        0.2674
     28 O         144.3896  136.8531  155.8390 O.2     1  UNL1       -0.2682
     29 H         141.4453  137.0280  157.6963 H       1  UNL1        0.1553
     30 C         142.6021  135.0006  156.1896 C.ar    1  UNL1        0.1386
     31 C         141.3924  134.6259  155.3859 C.ar    1  UNL1        0.1226
     32 N         141.2746  133.1306  155.3953 N.ar    1  UNL1       -0.2247
     33 C         142.4115  132.5810  156.2048 C.ar    1  UNL1        0.1480
     34 C         142.8056  131.1776  156.5583 C.ar    1  UNL1        0.0389
     35 C         144.0203  130.9299  157.4028 C.ar    1  UNL1        0.0218
     36 C         144.8409  132.0856  157.8938 C.ar    1  UNL1        0.0206
     37 C         144.4467  133.4891  157.5403 C.ar    1  UNL1        0.0816
     38 N         143.2320  133.7368  156.6957 N.ar    1  UNL1       -0.2850
     39 C         144.4145  129.5265  157.7563 C.ar    1  UNL1        0.0796
     40 C         144.4298  128.9357  159.1351 C.ar    1  UNL1        0.0412
     41 C         144.8874  127.5115  159.0240 C.ar    1  UNL1        0.1217
     42 N         145.1549  127.2220  157.5767 N.ar    1  UNL1       -0.1676
     43 N         144.8626  128.4674  156.7933 N.ar    1  UNL1       -0.2488
     44 C         144.9952  128.6258  155.3076 C.3     1  UNL1        0.1537
@<TRIPOS>BOND
     1    19    20    1
     2    20    21    1
     3    21    22    1
     4    22    23    1
     5    23    13    1
     6    13    14   ar
     7    14    15   ar
     8    15    16   ar
     9    16    17   ar
    10    17    18   ar
    11    18    12    1
    12    12     8    1
    13     8     9   am
    14     9    10    2
    15     9     1    1
    16     1     2   ar
    17     2     3   ar
    18     3     4   ar
    19     4     5    1
    20     4     6   ar
    21     6    26    1
    22    26    27   am
    23    27    28    2
    24    27    30    1
    25    30    31   ar
    26    31    32   ar
    27    32    33   ar
    28    33    34   ar
    29    34    35   ar
    30    35    39    1
    31    39    40   ar
    32    40    41   ar
    33    41    42   ar
    34    42    43   ar
    35    43    44    1
    36    35    36   ar
    37    36    37   ar
    38    37    38   ar
    39     6     7   ar
    40    23    24    1
    41    24    25    1
    42    25    20    1
    43    18    13   ar
    44     7     1   ar
    45    38    30   ar
    46    38    33   ar
    47    43    39   ar
    48     8    11    1
    49    26    29    1
@<TRIPOS>MOLECULE
*****
 44 49 0 0 0
SMALL
GASTEIGER

@<TRIPOS>ATOM
      1 C         143.5548  140.4661  163.9501 C.ar    1  UNL1        0.0547
      2 C         144.9630  140.9807  163.9987 C.ar    1  UNL1        0.0069
      3 C         145.5110  141.7756  162.8508 C.ar    1  UNL1        0.0311
      4 C         144.6510  142.0560  161.6542 C.ar    1  UNL1        0.1535
      5 F         145.1991  142.8509  160.5063 F       1  UNL1       -0.2029
      6 C         143.2429  141.5414  161.6057 C.ar    1  UNL1        0.0785
      7 C         142.6948  140.7465  162.7536 C.ar    1  UNL1        0.0215
      8 N         143.0822  140.2181  166.4927 N.am    1  UNL1       -0.2969
      9 C         143.0068  139.6712  165.0980 C.2     1  UNL1        0.2461
     10 O         142.3833  138.3294  164.8511 O.2     1  UNL1       -0.2701
     11 H         143.4914  141.0987  166.6547 H       1  UNL1        0.1501
     12 C         142.5341  139.4231  167.6406 C.3     1  UNL1        0.1178
     13 C         140.5313  140.7564  168.6208 C.ar    1  UNL1        0.0455
     14 C         139.8777  141.4578  169.7746 C.ar    1  UNL1        0.0143
     15 C         140.5733  141.5271  171.1017 C.ar    1  UNL1        0.0012
     16 C         141.9226  140.8950  171.2751 C.ar    1  UNL1       -0.0002
     17 C         142.5762  140.1937  170.1214 C.ar    1  UNL1       -0.0014
     18 C         141.8805  140.1244  168.7943 C.ar    1  UNL1        0.0108
     19 C         137.7487  140.4792  163.3123 C.3     1  UNL1        0.0897
     20 N         138.4444  140.5485  164.6394 N.3     1  UNL1       -0.2686
     21 C         139.2796  141.7450  164.9868 C.3     1  UNL1        0.0938
     22 C         139.9753  141.8143  166.3139 C.3     1  UNL1        0.1081
     23 N         139.8357  140.6872  167.2937 N.pl3   1  UNL1       -0.3049
     24 C         139.0004  139.4906  166.9463 C.3     1  UNL1        0.1081
     25 C         138.3048  139.4213  165.6192 C.3     1  UNL1        0.0938
     26 N         142.3828  141.8218  160.4091 N.am    1  UNL1       -0.2774
     27 C         141.1525  142.6679  160.5515 C.2     1  UNL1        0.2674
     28 O         140.7821  143.2337  161.8904 O.2     1  UNL1       -0.2682
     29 H         142.6259  141.4505  159.5303 H       1  UNL1        0.1553
     30 C         140.2925  142.9483  159.3549 C.ar    1  UNL1        0.1386
     31 C         139.0280  142.2288  158.9899 C.ar    1  UNL1        0.1226
     32 N         138.5001  142.8333  157.7226 N.ar    1  UNL1       -0.2247
     33 C         139.4382  143.9263  157.3044 C.ar    1  UNL1        0.1480
     34 C         139.4270  144.8661  156.1354 C.ar    1  UNL1        0.0389
     35 C         140.5235  145.8770  155.9752 C.ar    1  UNL1        0.0218
     36 C         141.6313  145.9482  156.9840 C.ar    1  UNL1        0.0206
     37 C         141.6426  145.0083  158.1531 C.ar    1  UNL1        0.0816
     38 N         140.5461  143.9974  158.3133 N.ar    1  UNL1       -0.2850
     39 C         140.5123  146.8168  154.8061 C.ar    1  UNL1        0.0796
     40 C         139.7902  148.1299  154.7373 C.ar    1  UNL1        0.0412
     41 C         140.0528  148.7331  153.3892 C.ar    1  UNL1        0.1217
     42 N         140.9371  147.7929  152.6250 N.ar    1  UNL1       -0.1676
     43 N         141.2211  146.6086  153.5007 N.ar    1  UNL1       -0.2488
     44 C         142.0655  145.4241  153.1351 C.3     1  UNL1        0.1537
@<TRIPOS>BOND
     1    19    20    1
     2    20    21    1
     3    21    22    1
     4    22    23    1
     5    23    13    1
     6    13    14   ar
     7    14    15   ar
     8    15    16   ar
     9    16    17   ar
    10    17    18   ar
    11    18    12    1
    12    12     8    1
    13     8     9   am
    14     9    10    2
    15     9     1    1
    16     1     2   ar
    17     2     3   ar
    18     3     4   ar
    19     4     5    1
    20     4     6   ar
    21     6    26    1
    22    26    27   am
    23    27    28    2
    24    27    30    1
    25    30    31   ar
    26    31    32   ar
    27    32    33   ar
    28    33    34   ar
    29    34    35   ar
    30    35    39    1
    31    39    40   ar
    32    40    41   ar
    33    41    42   ar
    34    42    43   ar
    35    43    44    1
    36    35    36   ar
    37    36    37   ar
    38    37    38   ar
    39     6     7   ar
    40    23    24    1
    41    24    25    1
    42    25    20    1
    43    18    13   ar
    44     7     1   ar
    45    38    30   ar
    46    38    33   ar
    47    43    39   ar
    48     8    11    1
    49    26    29    1
@<TRIPOS>MOLECULE
*****
 44 49 0 0 0
SMALL
GASTEIGER

@<TRIPOS>ATOM
      1 C         141.7393  143.9375  163.0763 C.ar    1  UNL1        0.0547
      2 C         140.9876  145.2200  162.8759 C.ar    1  UNL1        0.0069
      3 C         140.4510  145.5709  161.5198 C.ar    1  UNL1        0.0311
      4 C         140.6662  144.6393  160.3640 C.ar    1  UNL1        0.1535
      5 F         140.1296  144.9902  159.0079 F       1  UNL1       -0.2029
      6 C         141.4179  143.3568  160.5644 C.ar    1  UNL1        0.0785
      7 C         141.9545  143.0059  161.9205 C.ar    1  UNL1        0.0215
      8 N         141.4046  142.8705  165.4213 N.am    1  UNL1       -0.2969
      9 C         142.2759  143.5867  164.4323 C.2     1  UNL1        0.2461
     10 O         143.6837  143.9519  164.7994 O.2     1  UNL1       -0.2701
     11 H         140.4807  142.6308  165.1804 H       1  UNL1        0.1501
     12 C         141.9412  142.5196  166.7774 C.3     1  UNL1        0.1178
     13 C         140.3804  140.6225  167.6226 C.ar    1  UNL1        0.0455
     14 C         139.4635  140.0647  168.6707 C.ar    1  UNL1        0.0143
     15 C         139.1908  140.8463  169.9216 C.ar    1  UNL1        0.0012
     16 C         139.8350  142.1857  170.1243 C.ar    1  UNL1       -0.0002
     17 C         140.7517  142.7435  169.0763 C.ar    1  UNL1       -0.0014
     18 C         141.0244  141.9619  167.8255 C.ar    1  UNL1        0.0108
     19 C         141.4713  137.4960  162.6191 C.3     1  UNL1        0.0897
     20 N         141.1985  138.2776  163.8699 N.3     1  UNL1       -0.2686
     21 C         139.9127  139.0363  164.0149 C.3     1  UNL1        0.0938
     22 C         139.6400  139.8179  165.2658 C.3     1  UNL1        0.1081
     23 N         140.6531  139.8409  166.3717 N.pl3   1  UNL1       -0.3049
     24 C         141.9389  139.0822  166.2268 C.3     1  UNL1        0.1081
     25 C         142.2116  138.3006  164.9759 C.3     1  UNL1        0.0938
     26 N         141.6331  142.4252  159.4086 N.am    1  UNL1       -0.2774
     27 C         142.9258  142.4591  158.6485 C.2     1  UNL1        0.2674
     28 O         144.0034  143.4246  159.0442 O.2     1  UNL1       -0.2682
     29 H         140.9258  141.7915  159.1489 H       1  UNL1        0.1553
     30 C         143.1409  141.5275  157.4927 C.ar    1  UNL1        0.1386
     31 C         143.5699  141.9216  156.1106 C.ar    1  UNL1        0.1226
     32 N         143.6588  140.6758  155.2799 N.ar    1  UNL1       -0.2247
     33 C         143.2847  139.5117  156.1486 C.ar    1  UNL1        0.1480
     34 C         143.1943  138.0404  155.8711 C.ar    1  UNL1        0.0389
     35 C         142.7836  137.0954  156.9613 C.ar    1  UNL1        0.0218
     36 C         142.4635  137.6217  158.3289 C.ar    1  UNL1        0.0206
     37 C         142.5540  139.0931  158.6065 C.ar    1  UNL1        0.0816
     38 N         142.9646  140.0381  157.5163 N.ar    1  UNL1       -0.2850
     39 C         142.6931  135.6241  156.6838 C.ar    1  UNL1        0.0796
     40 C         143.5669  134.5593  157.2780 C.ar    1  UNL1        0.0412
     41 C         143.1267  133.2364  156.7247 C.ar    1  UNL1        0.1217
     42 N         141.9810  133.4834  155.7887 N.ar    1  UNL1       -0.1676
     43 N         141.7130  134.9591  155.7634 N.ar    1  UNL1       -0.2488
     44 C         140.6513  135.6487  154.9590 C.3     1  UNL1        0.1537
@<TRIPOS>BOND
     1    19    20    1
     2    20    21    1
     3    21    22    1
     4    22    23    1
     5    23    13    1
     6    13    14   ar
     7    14    15   ar
     8    15    16   ar
     9    16    17   ar
    10    17    18   ar
    11    18    12    1
    12    12     8    1
    13     8     9   am
    14     9    10    2
    15     9     1    1
    16     1     2   ar
    17     2     3   ar
    18     3     4   ar
    19     4     5    1
    20     4     6   ar
    21     6    26    1
    22    26    27   am
    23    27    28    2
    24    27    30    1
    25    30    31   ar
    26    31    32   ar
    27    32    33   ar
    28    33    34   ar
    29    34    35   ar
    30    35    39    1
    31    39    40   ar
    32    40    41   ar
    33    41    42   ar
    34    42    43   ar
    35    43    44    1
    36    35    36   ar
    37    36    37   ar
    38    37    38   ar
    39     6     7   ar
    40    23    24    1
    41    24    25    1
    42    25    20    1
    43    18    13   ar
    44     7     1   ar
    45    38    30   ar
    46    38    33   ar
    47    43    39   ar
    48     8    11    1
    49    26    29    1
@<TRIPOS>MOLECULE
*****
 44 49 0 0 0
SMALL
GASTEIGER

@<TRIPOS>ATOM
      1 C         140.1066  144.4036  163.1835 C.ar    1  UNL1        0.0547
      2 C         139.6319  145.6747  162.5442 C.ar    1  UNL1        0.0069
      3 C         140.0365  146.0034  161.1377 C.ar    1  UNL1        0.0311
      4 C         140.9158  145.0609  160.3705 C.ar    1  UNL1        0.1535
      5 F         141.3204  145.3896  158.9640 F       1  UNL1       -0.2029
      6 C         141.3905  143.7898  161.0099 C.ar    1  UNL1        0.0785
      7 C         140.9859  143.4611  162.4164 C.ar    1  UNL1        0.0215
      8 N         140.5470  143.1520  165.4173 N.am    1  UNL1       -0.2969
      9 C         139.7020  144.0749  164.5900 C.2     1  UNL1        0.2461
     10 O         138.4524  144.6691  165.1692 O.2     1  UNL1       -0.2701
     11 H         141.3671  142.7620  165.0371 H       1  UNL1        0.1501
     12 C         140.1424  142.8233  166.8238 C.3     1  UNL1        0.1178
     13 C         141.3394  140.6055  167.4545 C.ar    1  UNL1        0.0455
     14 C         142.2742  139.8414  168.3448 C.ar    1  UNL1        0.0143
     15 C         142.9466  140.5313  169.4945 C.ar    1  UNL1        0.0012
     16 C         142.6842  141.9852  169.7540 C.ar    1  UNL1       -0.0002
     17 C         141.7495  142.7493  168.8638 C.ar    1  UNL1       -0.0014
     18 C         141.0771  142.0594  167.7140 C.ar    1  UNL1        0.0108
     19 C         138.6498  137.8460  162.8555 C.3     1  UNL1        0.0897
     20 N         139.3221  138.5358  164.0052 N.3     1  UNL1       -0.2686
     21 C         138.5866  138.7287  165.2982 C.3     1  UNL1        0.0938
     22 C         139.2590  139.4186  166.4479 C.3     1  UNL1        0.1081
     23 N         140.6670  139.9156  166.3048 N.pl3   1  UNL1       -0.3049
     24 C         141.4026  139.7228  165.0118 C.3     1  UNL1        0.1081
     25 C         140.7302  139.0329  163.8621 C.3     1  UNL1        0.0938
     26 N         142.2698  142.8473  160.2427 N.am    1  UNL1       -0.2774
     27 C         141.6898  142.0072  159.1436 C.2     1  UNL1        0.2674
     28 O         140.2306  142.1095  158.8117 O.2     1  UNL1       -0.2682
     29 H         143.2275  142.7801  160.4605 H       1  UNL1        0.1553
     30 C         142.5692  141.0647  158.3765 C.ar    1  UNL1        0.1386
     31 C         143.9984  141.3080  157.9919 C.ar    1  UNL1        0.1226
     32 N         144.4862  140.1071  157.2370 N.ar    1  UNL1       -0.2247
     33 C         143.3584  139.1215  157.1550 C.ar    1  UNL1        0.1480
     34 C         143.2572  137.7617  156.5300 C.ar    1  UNL1        0.0389
     35 C         141.9711  136.9937  156.6093 C.ar    1  UNL1        0.0218
     36 C         140.7863  137.5855  157.3135 C.ar    1  UNL1        0.0206
     37 C         140.8875  138.9454  157.9385 C.ar    1  UNL1        0.0816
     38 N         142.1736  139.7134  157.8592 N.ar    1  UNL1       -0.2850
     39 C         141.8699  135.6339  155.9843 C.ar    1  UNL1        0.0796
     40 C         141.0717  135.2815  154.7641 C.ar    1  UNL1        0.0412
     41 C         141.2576  133.8175  154.4955 C.ar    1  UNL1        0.1217
     42 N         142.1706  133.2650  155.5497 N.ar    1  UNL1       -0.1676
     43 N         142.5490  134.3877  156.4698 N.ar    1  UNL1       -0.2488
     44 C         143.4486  134.2825  157.6655 C.3     1  UNL1        0.1537
@<TRIPOS>BOND
     1    19    20    1
     2    20    21    1
     3    21    22    1
     4    22    23    1
     5    23    13    1
     6    13    14   ar
     7    14    15   ar
     8    15    16   ar
     9    16    17   ar
    10    17    18   ar
    11    18    12    1
    12    12     8    1
    13     8     9   am
    14     9    10    2
    15     9     1    1
    16     1     2   ar
    17     2     3   ar
    18     3     4   ar
    19     4     5    1
    20     4     6   ar
    21     6    26    1
    22    26    27   am
    23    27    28    2
    24    27    30    1
    25    30    31   ar
    26    31    32   ar
    27    32    33   ar
    28    33    34   ar
    29    34    35   ar
    30    35    39    1
    31    39    40   ar
    32    40    41   ar
    33    41    42   ar
    34    42    43   ar
    35    43    44    1
    36    35    36   ar
    37    36    37   ar
    38    37    38   ar
    39     6     7   ar
    40    23    24    1
    41    24    25    1
    42    25    20    1
    43    18    13   ar
    44     7     1   ar
    45    38    30   ar
    46    38    33   ar
    47    43    39   ar
    48     8    11    1
    49    26    29    1
@<TRIPOS>MOLECULE
*****
 44 49 0 0 0
SMALL
GASTEIGER

@<TRIPOS>ATOM
      1 C         144.0961  140.2892  162.1331 C.ar    1  UNL1        0.0547
      2 C         144.2658  141.7712  161.9763 C.ar    1  UNL1        0.0069
      3 C         144.2594  142.3864  160.6082 C.ar    1  UNL1        0.0311
      4 C         144.0834  141.5194  159.3969 C.ar    1  UNL1        0.1535
      5 F         144.0770  142.1345  158.0288 F       1  UNL1       -0.2029
      6 C         143.9137  140.0373  159.5537 C.ar    1  UNL1        0.0785
      7 C         143.9201  139.4222  160.9217 C.ar    1  UNL1        0.0215
      8 N         142.8667  139.0083  164.0298 N.am    1  UNL1       -0.2969
      9 C         144.1025  139.6740  163.5011 C.2     1  UNL1        0.2461
     10 O         145.3447  139.7247  164.3404 O.2     1  UNL1       -0.2701
     11 H         142.0514  138.9750  163.4789 H       1  UNL1        0.1501
     12 C         142.8730  138.3931  165.3979 C.3     1  UNL1        0.1178
     13 C         140.7845  139.5503  166.4219 C.ar    1  UNL1        0.0455
     14 C         140.1222  140.2591  167.5661 C.ar    1  UNL1        0.0143
     15 C         140.8864  140.5195  168.8303 C.ar    1  UNL1        0.0012
     16 C         142.3128  140.0711  168.9504 C.ar    1  UNL1       -0.0002
     17 C         142.9750  139.3623  167.8062 C.ar    1  UNL1       -0.0014
     18 C         142.2109  139.1019  166.5420 C.ar    1  UNL1        0.0108
     19 C         137.7280  138.5086  161.3650 C.3     1  UNL1        0.0897
     20 N         138.4921  138.7690  162.6292 N.3     1  UNL1       -0.2686
     21 C         138.9132  140.1661  162.9767 C.3     1  UNL1        0.0938
     22 C         139.6774  140.4265  164.2410 C.3     1  UNL1        0.1081
     23 N         140.0204  139.2899  165.1577 N.pl3   1  UNL1       -0.3049
     24 C         139.5993  137.8928  164.8102 C.3     1  UNL1        0.1081
     25 C         138.8352  137.6324  163.5459 C.3     1  UNL1        0.0938
     26 N         143.7377  139.1703  158.3423 N.am    1  UNL1       -0.2774
     27 C         142.5179  138.3077  158.2083 C.2     1  UNL1        0.2674
     28 O         141.4741  138.3120  159.2855 O.2     1  UNL1       -0.2682
     29 H         144.4227  139.1675  157.6352 H       1  UNL1        0.1553
     30 C         142.3419  137.4407  156.9968 C.ar    1  UNL1        0.1386
     31 C         141.7578  137.8690  155.6834 C.ar    1  UNL1        0.1226
     32 N         141.7741  136.6862  154.7611 N.ar    1  UNL1       -0.2247
     33 C         142.3683  135.5269  155.5045 C.ar    1  UNL1        0.1480
     34 C         142.6352  134.1068  155.1017 C.ar    1  UNL1        0.0389
     35 C         143.2531  133.1530  156.0808 C.ar    1  UNL1        0.0218
     36 C         143.6040  133.6193  157.4626 C.ar    1  UNL1        0.0206
     37 C         143.3371  135.0394  157.8654 C.ar    1  UNL1        0.0816
     38 N         142.7193  135.9932  156.8863 N.ar    1  UNL1       -0.2850
     39 C         143.5199  131.7330  155.6781 C.ar    1  UNL1        0.0796
     40 C         144.8501  131.0406  155.7170 C.ar    1  UNL1        0.0412
     41 C         144.6557  129.6357  155.2287 C.ar    1  UNL1        0.1217
     42 N         143.2055  129.4597  154.8880 N.ar    1  UNL1       -0.1676
     43 N         142.5036  130.7560  155.1658 N.ar    1  UNL1       -0.2488
     44 C         141.0420  131.0275  154.9662 C.3     1  UNL1        0.1537
@<TRIPOS>BOND
     1    19    20    1
     2    20    21    1
     3    21    22    1
     4    22    23    1
     5    23    13    1
     6    13    14   ar
     7    14    15   ar
     8    15    16   ar
     9    16    17   ar
    10    17    18   ar
    11    18    12    1
    12    12     8    1
    13     8     9   am
    14     9    10    2
    15     9     1    1
    16     1     2   ar
    17     2     3   ar
    18     3     4   ar
    19     4     5    1
    20     4     6   ar
    21     6    26    1
    22    26    27   am
    23    27    28    2
    24    27    30    1
    25    30    31   ar
    26    31    32   ar
    27    32    33   ar
    28    33    34   ar
    29    34    35   ar
    30    35    39    1
    31    39    40   ar
    32    40    41   ar
    33    41    42   ar
    34    42    43   ar
    35    43    44    1
    36    35    36   ar
    37    36    37   ar
    38    37    38   ar
    39     6     7   ar
    40    23    24    1
    41    24    25    1
    42    25    20    1
    43    18    13   ar
    44     7     1   ar
    45    38    30   ar
    46    38    33   ar
    47    43    39   ar
    48     8    11    1
    49    26    29    1
@<TRIPOS>MOLECULE
*****
 44 49 0 0 0
SMALL
GASTEIGER

@<TRIPOS>ATOM
      1 C         141.3652  143.0688  162.9054 C.ar    1  UNL1        0.0547
      2 C         141.3006  144.5239  162.5468 C.ar    1  UNL1        0.0069
      3 C         140.7279  144.9463  161.2264 C.ar    1  UNL1        0.0311
      4 C         140.2197  143.9136  160.2645 C.ar    1  UNL1        0.1535
      5 F         139.6469  144.3361  158.9441 F       1  UNL1       -0.2029
      6 C         140.2843  142.4586  160.6230 C.ar    1  UNL1        0.0785
      7 C         140.8571  142.0362  161.9434 C.ar    1  UNL1        0.0215
      8 N         141.2446  143.0269  165.5003 N.am    1  UNL1       -0.2969
      9 C         141.9380  142.6464  164.2258 C.2     1  UNL1        0.2461
     10 O         143.2042  141.8434  164.2716 O.2     1  UNL1       -0.2701
     11 H         140.4136  143.5540  165.4701 H       1  UNL1        0.1501
     12 C         141.8174  142.6045  166.8207 C.3     1  UNL1        0.1178
     13 C         140.3450  140.6313  167.6501 C.ar    1  UNL1        0.0455
     14 C         139.4552  140.0234  168.6937 C.ar    1  UNL1        0.0143
     15 C         139.1483  140.7811  169.9514 C.ar    1  UNL1        0.0012
     16 C         139.7310  142.1467  170.1654 C.ar    1  UNL1       -0.0002
     17 C         140.6207  142.7545  169.1219 C.ar    1  UNL1       -0.0014
     18 C         140.9277  141.9968  167.8642 C.ar    1  UNL1        0.0108
     19 C         141.5731  137.6004  162.6197 C.3     1  UNL1        0.0897
     20 N         141.2660  138.3581  163.8772 N.3     1  UNL1       -0.2686
     21 C         139.9592  139.0811  164.0172 C.3     1  UNL1        0.0938
     22 C         139.6522  139.8388  165.2748 C.3     1  UNL1        0.1081
     23 N         140.6520  139.8736  166.3925 N.pl3   1  UNL1       -0.3049
     24 C         141.9588  139.1506  166.2526 C.3     1  UNL1        0.1081
     25 C         142.2658  138.3929  164.9950 C.3     1  UNL1        0.0938
     26 N         139.7761  141.4259  159.6610 N.am    1  UNL1       -0.2774
     27 C         140.6844  140.8770  158.6010 C.2     1  UNL1        0.2674
     28 O         142.1009  141.3606  158.5029 O.2     1  UNL1       -0.2682
     29 H         138.8464  141.1085  159.7254 H       1  UNL1        0.1553
     30 C         140.1761  139.8443  157.6391 C.ar    1  UNL1        0.1386
     31 C         138.8658  139.8872  156.9105 C.ar    1  UNL1        0.1226
     32 N         138.7689  138.6568  156.0580 N.ar    1  UNL1       -0.2247
     33 C         140.0193  137.8534  156.2597 C.ar    1  UNL1        0.1480
     34 C         140.4784  136.5484  155.6799 C.ar    1  UNL1        0.0389
     35 C         141.8073  135.9773  156.0773 C.ar    1  UNL1        0.0218
     36 C         142.6771  136.7112  157.0544 C.ar    1  UNL1        0.0206
     37 C         142.2180  138.0162  157.6343 C.ar    1  UNL1        0.0816
     38 N         140.8891  138.5874  157.2369 N.ar    1  UNL1       -0.2850
     39 C         142.2664  134.6723  155.4975 C.ar    1  UNL1        0.0796
     40 C         141.9910  134.1794  154.1077 C.ar    1  UNL1        0.0412
     41 C         142.6359  132.8335  153.9570 C.ar    1  UNL1        0.1217
     42 N         143.3100  132.4946  155.2534 N.ar    1  UNL1       -0.1676
     43 N         143.0816  133.6311  156.2055 N.ar    1  UNL1       -0.2488
     44 C         143.5808  133.7121  157.6176 C.3     1  UNL1        0.1537
@<TRIPOS>BOND
     1    19    20    1
     2    20    21    1
     3    21    22    1
     4    22    23    1
     5    23    13    1
     6    13    14   ar
     7    14    15   ar
     8    15    16   ar
     9    16    17   ar
    10    17    18   ar
    11    18    12    1
    12    12     8    1
    13     8     9   am
    14     9    10    2
    15     9     1    1
    16     1     2   ar
    17     2     3   ar
    18     3     4   ar
    19     4     5    1
    20     4     6   ar
    21     6    26    1
    22    26    27   am
    23    27    28    2
    24    27    30    1
    25    30    31   ar
    26    31    32   ar
    27    32    33   ar
    28    33    34   ar
    29    34    35   ar
    30    35    39    1
    31    39    40   ar
    32    40    41   ar
    33    41    42   ar
    34    42    43   ar
    35    43    44    1
    36    35    36   ar
    37    36    37   ar
    38    37    38   ar
    39     6     7   ar
    40    23    24    1
    41    24    25    1
    42    25    20    1
    43    18    13   ar
    44     7     1   ar
    45    38    30   ar
    46    38    33   ar
    47    43    39   ar
    48     8    11    1
    49    26    29    1
