@<TRIPOS>MOLECULE
*****
 33 37 0 0 0
SMALL
GASTEIGER

@<TRIPOS>ATOM
      1 N         142.8486  138.8672  163.5115 N.3     1  UNL1       -0.2726
      2 C         144.0420  139.1603  162.6513 C.3     1  UNL1        0.0721
      3 C         144.6870  140.4134  163.1650 C.3     1  UNL1        0.0190
      4 C         143.8923  140.8947  164.3426 C.3     1  UNL1        0.0201
      5 C         144.7406  142.0997  164.6223 C.3     1  UNL1        0.0061
      6 C         143.5472  141.8066  165.4824 C.3     1  UNL1        0.0237
      7 C         142.7561  139.9391  164.5568 C.3     1  UNL1        0.0724
      8 C         142.6589  142.1639  166.6371 C.ar    1  UNL1       -0.0225
      9 C         141.2219  142.5199  166.3958 C.ar    1  UNL1       -0.0043
     10 C         140.3336  142.8771  167.5505 C.ar    1  UNL1        0.0035
     11 C         140.8824  142.8784  168.9465 C.ar    1  UNL1        0.0714
     12 C         142.3195  142.5225  169.1878 C.ar    1  UNL1        0.0035
     13 C         143.2077  142.1652  168.0331 C.ar    1  UNL1       -0.0043
     14 C         139.9942  143.2357  170.1012 C.3     1  UNL1        0.4186
     15 F         139.1059  143.5930  171.2560 F       1  UNL1       -0.1659
     16 F         140.4354  144.6656  169.9982 F       1  UNL1       -0.1659
     17 F         139.5529  141.8058  170.2042 F       1  UNL1       -0.1659
     18 C         141.9121  137.7061  163.3541 C.3     1  UNL1        0.0730
     19 C         140.8172  137.4846  164.3551 C.3     1  UNL1        0.0294
     20 C         139.4473  138.0419  164.1039 C.3     1  UNL1        0.0666
     21 S         139.1082  138.6228  162.7633 S.3     1  UNL1       -0.0756
     22 C         138.7381  142.4444  162.1935 C.ar    1  UNL1        0.1843
     23 N         137.3934  142.1049  162.7651 N.ar    1  UNL1       -0.1267
     24 N         137.3684  140.6321  163.0481 N.ar    1  UNL1       -0.1221
     25 C         138.6976  140.0612  162.6514 C.ar    1  UNL1        0.1933
     26 N         139.5441  141.1812  162.1232 N.ar    1  UNL1       -0.2872
     27 C         140.9498  141.0595  161.6142 C.3     1  UNL1        0.1340
     28 C         139.5402  143.3360  159.1585 C.3     1  UNL1        0.1538
     29 N         139.5649  144.2174  160.3720 N.ar    1  UNL1       -0.2458
     30 N         139.9627  145.6633  160.4035 N.ar    1  UNL1       -0.1676
     31 C         139.8398  146.1472  161.8181 C.ar    1  UNL1        0.1218
     32 C         139.3661  145.0002  162.6607 C.ar    1  UNL1        0.0443
     33 C         139.1962  143.8076  161.7670 C.ar    1  UNL1        0.1153
@<TRIPOS>BOND
     1    28    29    1
     2    29    30   ar
     3    30    31   ar
     4    31    32   ar
     5    32    33   ar
     6    33    22    1
     7    22    23   ar
     8    23    24   ar
     9    24    25   ar
    10    25    21    1
    11    21    20    1
    12    20    19    1
    13    19    18    1
    14    18     1    1
    15     1     2    1
    16     2     3    1
    17     4     3    1
    18     4     5    1
    19     5     6    1
    20     6     8    1
    21     8     9   ar
    22     9    10   ar
    23    10    11   ar
    24    11    14    1
    25    14    15    1
    26    14    16    1
    27    14    17    1
    28    11    12   ar
    29    12    13   ar
    30     4     7    1
    31    25    26   ar
    32    26    27    1
    33    33    29   ar
    34    26    22   ar
    35     7     1    1
    36     6     4    1
    37    13     8   ar
@<TRIPOS>MOLECULE
*****
 33 37 0 0 0
SMALL
GASTEIGER

@<TRIPOS>ATOM
      1 N         144.2717  142.4584  163.0659 N.3     1  UNL1       -0.2726
      2 C         144.9590  141.2655  162.4705 C.3     1  UNL1        0.0721
      3 C         144.7384  140.0983  163.3865 C.3     1  UNL1        0.0190
      4 C         143.9149  140.5699  164.5481 C.3     1  UNL1        0.0201
      5 C         143.8643  139.2463  165.2521 C.3     1  UNL1        0.0061
      6 C         143.1770  140.4392  165.8476 C.3     1  UNL1        0.0237
      7 C         143.6264  142.0285  164.3500 C.3     1  UNL1        0.0724
      8 C         142.3542  141.0525  166.9416 C.ar    1  UNL1       -0.0225
      9 C         140.8853  140.7613  167.0284 C.ar    1  UNL1       -0.0043
     10 C         140.0625  141.3746  168.1224 C.ar    1  UNL1        0.0035
     11 C         140.7086  142.2791  169.1295 C.ar    1  UNL1        0.0714
     12 C         142.1775  142.5704  169.0427 C.ar    1  UNL1        0.0035
     13 C         143.0003  141.9571  167.9487 C.ar    1  UNL1       -0.0043
     14 C         139.8858  142.8924  170.2235 C.3     1  UNL1        0.4186
     15 F         139.0630  143.5058  171.3176 F       1  UNL1       -0.1659
     16 F         139.0919  141.6249  170.3371 F       1  UNL1       -0.1659
     17 F         140.6797  144.1600  170.1100 F       1  UNL1       -0.1659
     18 C         144.2360  143.8388  162.4802 C.3     1  UNL1        0.0730
     19 C         143.8335  145.0052  163.3331 C.3     1  UNL1        0.0294
     20 C         142.3821  145.3426  163.5060 C.3     1  UNL1        0.0666
     21 S         141.3541  144.7117  162.6143 S.3     1  UNL1       -0.0756
     22 C         139.4815  141.4010  163.3878 C.ar    1  UNL1        0.1843
     23 N         138.9203  142.3053  164.4449 N.ar    1  UNL1       -0.1267
     24 N         139.5535  143.6556  164.2838 N.ar    1  UNL1       -0.1221
     25 C         140.5060  143.5858  163.1271 C.ar    1  UNL1        0.1933
     26 N         140.4616  142.1924  162.5734 N.ar    1  UNL1       -0.2872
     27 C         141.2575  141.6804  161.4096 C.3     1  UNL1        0.1340
     28 C         137.6429  140.2062  160.9709 C.3     1  UNL1        0.1538
     29 N         138.2801  139.4094  162.0705 N.ar    1  UNL1       -0.2458
     30 N         138.1842  137.9236  162.2523 N.ar    1  UNL1       -0.1676
     31 C         138.9700  137.5545  163.4755 C.ar    1  UNL1        0.1218
     32 C         139.5516  138.8122  164.0498 C.ar    1  UNL1        0.0443
     33 C         139.1253  139.9586  163.1814 C.ar    1  UNL1        0.1153
@<TRIPOS>BOND
     1    28    29    1
     2    29    30   ar
     3    30    31   ar
     4    31    32   ar
     5    32    33   ar
     6    33    22    1
     7    22    23   ar
     8    23    24   ar
     9    24    25   ar
    10    25    21    1
    11    21    20    1
    12    20    19    1
    13    19    18    1
    14    18     1    1
    15     1     2    1
    16     2     3    1
    17     4     3    1
    18     4     5    1
    19     5     6    1
    20     6     8    1
    21     8     9   ar
    22     9    10   ar
    23    10    11   ar
    24    11    14    1
    25    14    15    1
    26    14    16    1
    27    14    17    1
    28    11    12   ar
    29    12    13   ar
    30     4     7    1
    31    25    26   ar
    32    26    27    1
    33    33    29   ar
    34    26    22   ar
    35     7     1    1
    36     6     4    1
    37    13     8   ar
@<TRIPOS>MOLECULE
*****
 33 37 0 0 0
SMALL
GASTEIGER

@<TRIPOS>ATOM
      1 N         142.9441  143.0033  161.6723 N.3     1  UNL1       -0.2726
      2 C         144.2962  142.8879  161.0332 C.3     1  UNL1        0.0721
      3 C         145.2063  142.1866  161.9976 C.3     1  UNL1        0.0190
      4 C         144.4166  141.8686  163.2326 C.3     1  UNL1        0.0201
      5 C         145.5409  141.2048  163.9710 C.3     1  UNL1        0.0061
      6 C         144.1888  141.3202  164.6101 C.3     1  UNL1        0.0237
      7 C         143.0185  142.3734  163.0316 C.3     1  UNL1        0.0724
      8 C         143.2766  141.0703  165.7743 C.ar    1  UNL1       -0.0225
      9 C         142.5265  139.7752  165.8748 C.ar    1  UNL1       -0.0043
     10 C         141.6144  139.5252  167.0390 C.ar    1  UNL1        0.0035
     11 C         141.4522  140.5704  168.1027 C.ar    1  UNL1        0.0714
     12 C         142.2023  141.8655  168.0021 C.ar    1  UNL1        0.0035
     13 C         143.1145  142.1155  166.8379 C.ar    1  UNL1       -0.0043
     14 C         140.5401  140.3204  169.2669 C.3     1  UNL1        0.4186
     15 F         139.6278  140.0705  170.4312 F       1  UNL1       -0.1659
     16 F         141.4302  139.2032  169.7244 F       1  UNL1       -0.1659
     17 F         139.6499  141.4377  168.8093 F       1  UNL1       -0.1659
     18 C         141.7306  143.6374  161.0596 C.3     1  UNL1        0.0730
     19 C         141.3361  145.0316  161.4476 C.3     1  UNL1        0.0294
     20 C         139.8859  145.3908  161.5824 C.3     1  UNL1        0.0666
     21 S         139.1033  144.9174  162.7712 S.3     1  UNL1       -0.0756
     22 C         138.2764  141.2002  163.5225 C.ar    1  UNL1        0.1843
     23 N         137.4247  141.4479  162.3128 N.ar    1  UNL1       -0.1267
     24 N         137.6308  142.8705  161.8842 N.ar    1  UNL1       -0.1221
     25 C         138.6099  143.5020  162.8289 C.ar    1  UNL1        0.1933
     26 N         139.0090  142.4698  163.8414 N.ar    1  UNL1       -0.2872
     27 C         139.9715  142.6716  164.9740 C.3     1  UNL1        0.1340
     28 C         139.1729  138.3159  162.2868 C.3     1  UNL1        0.1538
     29 N         138.7899  138.5838  163.7121 N.ar    1  UNL1       -0.2458
     30 N         138.7517  137.5730  164.8198 N.ar    1  UNL1       -0.1676
     31 C         138.3161  138.2741  166.0723 C.ar    1  UNL1        0.1218
     32 C         138.0850  139.7181  165.7387 C.ar    1  UNL1        0.0443
     33 C         138.3779  139.9095  164.2801 C.ar    1  UNL1        0.1153
@<TRIPOS>BOND
     1    28    29    1
     2    29    30   ar
     3    30    31   ar
     4    31    32   ar
     5    32    33   ar
     6    33    22    1
     7    22    23   ar
     8    23    24   ar
     9    24    25   ar
    10    25    21    1
    11    21    20    1
    12    20    19    1
    13    19    18    1
    14    18     1    1
    15     1     2    1
    16     2     3    1
    17     4     3    1
    18     4     5    1
    19     5     6    1
    20     6     8    1
    21     8     9   ar
    22     9    10   ar
    23    10    11   ar
    24    11    14    1
    25    14    15    1
    26    14    16    1
    27    14    17    1
    28    11    12   ar
    29    12    13   ar
    30     4     7    1
    31    25    26   ar
    32    26    27    1
    33    33    29   ar
    34    26    22   ar
    35     7     1    1
    36     6     4    1
    37    13     8   ar
@<TRIPOS>MOLECULE
*****
 33 37 0 0 0
SMALL
GASTEIGER

@<TRIPOS>ATOM
      1 N         143.4725  143.5168  163.6679 N.3     1  UNL1       -0.2726
      2 C         143.2928  144.9875  163.4344 C.3     1  UNL1        0.0721
      3 C         141.8990  145.3557  163.8490 C.3     1  UNL1        0.0190
      4 C         141.2173  144.1125  164.3386 C.3     1  UNL1        0.0201
      5 C         139.9089  144.7694  164.6650 C.3     1  UNL1        0.0061
      6 C         140.0886  143.2986  164.8985 C.3     1  UNL1        0.0237
      7 C         142.1898  142.9760  164.2267 C.3     1  UNL1        0.0724
      8 C         139.5407  141.9795  165.3565 C.ar    1  UNL1       -0.0225
      9 C         140.0846  141.3306  166.5947 C.ar    1  UNL1       -0.0043
     10 C         139.5367  140.0116  167.0528 C.ar    1  UNL1        0.0035
     11 C         138.4449  139.3414  166.2726 C.ar    1  UNL1        0.0714
     12 C         137.9009  139.9903  165.0344 C.ar    1  UNL1        0.0035
     13 C         138.4488  141.3093  164.5764 C.ar    1  UNL1       -0.0043
     14 C         137.8970  138.0223  166.7306 C.3     1  UNL1        0.4186
     15 F         137.3490  136.7032  167.1887 F       1  UNL1       -0.1659
     16 F         138.5567  137.3441  165.5666 F       1  UNL1       -0.1659
     17 F         137.2373  138.7005  167.8946 F       1  UNL1       -0.1659
     18 C         144.7165  142.7256  163.3911 C.3     1  UNL1        0.0730
     19 C         144.8169  141.8976  162.1444 C.3     1  UNL1        0.0294
     20 C         144.9071  142.5666  160.8049 C.3     1  UNL1        0.0666
     21 S         143.7047  142.6177  159.9096 S.3     1  UNL1       -0.0756
     22 C         140.4612  140.9016  161.1748 C.ar    1  UNL1        0.1843
     23 N         140.1064  142.3497  161.3400 N.ar    1  UNL1       -0.1267
     24 N         141.2782  143.1688  160.8862 N.ar    1  UNL1       -0.1221
     25 C         142.3573  142.2270  160.4405 C.ar    1  UNL1        0.1933
     26 N         141.8524  140.8258  160.6188 N.ar    1  UNL1       -0.2872
     27 C         142.6062  139.5694  160.2976 C.3     1  UNL1        0.1340
     28 C         141.0790  138.6069  163.4113 C.3     1  UNL1        0.1538
     29 N         139.8637  138.6796  162.5352 N.ar    1  UNL1       -0.2458
     30 N         138.7189  137.7104  162.5332 N.ar    1  UNL1       -0.1676
     31 C         137.7274  138.1661  161.5040 C.ar    1  UNL1        0.1218
     32 C         138.2594  139.4170  160.8699 C.ar    1  UNL1        0.0443
     33 C         139.5797  139.7344  161.5072 C.ar    1  UNL1        0.1153
@<TRIPOS>BOND
     1    28    29    1
     2    29    30   ar
     3    30    31   ar
     4    31    32   ar
     5    32    33   ar
     6    33    22    1
     7    22    23   ar
     8    23    24   ar
     9    24    25   ar
    10    25    21    1
    11    21    20    1
    12    20    19    1
    13    19    18    1
    14    18     1    1
    15     1     2    1
    16     2     3    1
    17     4     3    1
    18     4     5    1
    19     5     6    1
    20     6     8    1
    21     8     9   ar
    22     9    10   ar
    23    10    11   ar
    24    11    14    1
    25    14    15    1
    26    14    16    1
    27    14    17    1
    28    11    12   ar
    29    12    13   ar
    30     4     7    1
    31    25    26   ar
    32    26    27    1
    33    33    29   ar
    34    26    22   ar
    35     7     1    1
    36     6     4    1
    37    13     8   ar
@<TRIPOS>MOLECULE
*****
 33 37 0 0 0
SMALL
GASTEIGER

@<TRIPOS>ATOM
      1 N         143.9631  143.1861  163.6558 N.3     1  UNL1       -0.2726
      2 C         143.8576  144.6597  163.3966 C.3     1  UNL1        0.0721
      3 C         142.4595  145.0898  163.7287 C.3     1  UNL1        0.0190
      4 C         141.7009  143.8820  164.1932 C.3     1  UNL1        0.0201
      5 C         140.4047  144.5958  164.4390 C.3     1  UNL1        0.0061
      6 C         140.5102  143.1222  164.6982 C.3     1  UNL1        0.0237
      7 C         142.6302  142.7054  164.1482 C.3     1  UNL1        0.0724
      8 C         139.8838  141.8327  165.1395 C.ar    1  UNL1       -0.0225
      9 C         140.0376  141.3710  166.5584 C.ar    1  UNL1       -0.0043
     10 C         139.4111  140.0815  166.9996 C.ar    1  UNL1        0.0035
     11 C         138.6308  139.2537  166.0219 C.ar    1  UNL1        0.0714
     12 C         138.4770  139.7154  164.6030 C.ar    1  UNL1        0.0035
     13 C         139.1035  141.0049  164.1618 C.ar    1  UNL1       -0.0043
     14 C         138.0043  137.9642  166.4632 C.3     1  UNL1        0.4186
     15 F         137.3778  136.6747  166.9044 F       1  UNL1       -0.1659
     16 F         138.7267  137.2383  165.3672 F       1  UNL1       -0.1659
     17 F         137.2819  138.6902  167.5591 F       1  UNL1       -0.1659
     18 C         145.1866  142.3413  163.4575 C.3     1  UNL1        0.0730
     19 C         145.2335  140.9477  164.0103 C.3     1  UNL1        0.0294
     20 C         144.5910  139.8203  163.2578 C.3     1  UNL1        0.0666
     21 S         143.4807  139.0338  163.8891 S.3     1  UNL1       -0.0756
     22 C         140.4663  138.7597  161.4594 C.ar    1  UNL1        0.1843
     23 N         140.3217  137.4901  162.2451 N.ar    1  UNL1       -0.1267
     24 N         141.4333  137.4383  163.2509 N.ar    1  UNL1       -0.1221
     25 C         142.2649  138.6758  163.0868 C.ar    1  UNL1        0.1933
     26 N         141.6673  139.4925  161.9797 N.ar    1  UNL1       -0.2872
     27 C         142.1806  140.8106  161.4804 C.3     1  UNL1        0.1340
     28 C         140.9845  138.3169  158.2680 C.3     1  UNL1        0.1538
     29 N         139.8058  139.0128  158.8816 N.ar    1  UNL1       -0.2458
     30 N         138.6584  139.6274  158.1361 N.ar    1  UNL1       -0.1676
     31 C         137.7111  140.2107  159.1423 C.ar    1  UNL1        0.1218
     32 C         138.2731  139.9567  160.5096 C.ar    1  UNL1        0.0443
     33 C         139.5676  139.2164  160.3486 C.ar    1  UNL1        0.1153
@<TRIPOS>BOND
     1    28    29    1
     2    29    30   ar
     3    30    31   ar
     4    31    32   ar
     5    32    33   ar
     6    33    22    1
     7    22    23   ar
     8    23    24   ar
     9    24    25   ar
    10    25    21    1
    11    21    20    1
    12    20    19    1
    13    19    18    1
    14    18     1    1
    15     1     2    1
    16     2     3    1
    17     4     3    1
    18     4     5    1
    19     5     6    1
    20     6     8    1
    21     8     9   ar
    22     9    10   ar
    23    10    11   ar
    24    11    14    1
    25    14    15    1
    26    14    16    1
    27    14    17    1
    28    11    12   ar
    29    12    13   ar
    30     4     7    1
    31    25    26   ar
    32    26    27    1
    33    33    29   ar
    34    26    22   ar
    35     7     1    1
    36     6     4    1
    37    13     8   ar
@<TRIPOS>MOLECULE
*****
 33 37 0 0 0
SMALL
GASTEIGER

@<TRIPOS>ATOM
      1 N         141.2806  144.3993  162.5316 N.3     1  UNL1       -0.2726
      2 C         140.1339  145.2838  162.1407 C.3     1  UNL1        0.0721
      3 C         139.0538  145.1240  163.1692 C.3     1  UNL1        0.0190
      4 C         139.5329  144.1407  164.1957 C.3     1  UNL1        0.0201
      5 C         138.2987  144.1885  165.0468 C.3     1  UNL1        0.0061
      6 C         139.4453  143.3040  165.4376 C.3     1  UNL1        0.0237
      7 C         140.9092  143.6928  163.8016 C.3     1  UNL1        0.0724
      8 C         140.0568  142.3103  166.3802 C.ar    1  UNL1       -0.0225
      9 C         141.2449  142.6967  167.2104 C.ar    1  UNL1       -0.0043
     10 C         141.8564  141.7030  168.1530 C.ar    1  UNL1        0.0035
     11 C         141.2798  140.3228  168.2655 C.ar    1  UNL1        0.0714
     12 C         140.0917  139.9364  167.4353 C.ar    1  UNL1        0.0035
     13 C         139.4802  140.9301  166.4927 C.ar    1  UNL1       -0.0043
     14 C         141.8913  139.3291  169.2081 C.3     1  UNL1        0.4186
     15 F         142.5028  138.3353  170.1508 F       1  UNL1       -0.1659
     16 F         142.9882  139.0662  168.2194 F       1  UNL1       -0.1659
     17 F         140.7944  139.5920  170.1968 F       1  UNL1       -0.1659
     18 C         142.5720  144.2478  161.7837 C.3     1  UNL1        0.0730
     19 C         143.8624  144.1095  162.5357 C.3     1  UNL1        0.0294
     20 C         144.9540  143.2327  161.9975 C.3     1  UNL1        0.0666
     21 S         145.1077  141.8295  162.5048 S.3     1  UNL1       -0.0756
     22 C         141.8419  140.0159  163.5592 C.ar    1  UNL1        0.1843
     23 N         142.5267  140.1739  164.8844 N.ar    1  UNL1       -0.1267
     24 N         143.8333  140.8725  164.6507 N.ar    1  UNL1       -0.1221
     25 C         143.9562  141.1462  163.1811 C.ar    1  UNL1        0.1933
     26 N         142.7255  140.6169  162.5064 N.ar    1  UNL1       -0.2872
     27 C         142.4302  140.6777  161.0370 C.3     1  UNL1        0.1340
     28 C         141.1168  136.8749  164.0673 C.3     1  UNL1        0.1538
     29 N         140.1747  137.9266  163.5610 N.ar    1  UNL1       -0.2458
     30 N         138.7338  137.7191  163.1993 N.ar    1  UNL1       -0.1676
     31 C         138.1766  139.0347  162.7422 C.ar    1  UNL1        0.1218
     32 C         139.2731  140.0551  162.8214 C.ar    1  UNL1        0.0443
     33 C         140.5079  139.3703  163.3274 C.ar    1  UNL1        0.1153
@<TRIPOS>BOND
     1    28    29    1
     2    29    30   ar
     3    30    31   ar
     4    31    32   ar
     5    32    33   ar
     6    33    22    1
     7    22    23   ar
     8    23    24   ar
     9    24    25   ar
    10    25    21    1
    11    21    20    1
    12    20    19    1
    13    19    18    1
    14    18     1    1
    15     1     2    1
    16     2     3    1
    17     4     3    1
    18     4     5    1
    19     5     6    1
    20     6     8    1
    21     8     9   ar
    22     9    10   ar
    23    10    11   ar
    24    11    14    1
    25    14    15    1
    26    14    16    1
    27    14    17    1
    28    11    12   ar
    29    12    13   ar
    30     4     7    1
    31    25    26   ar
    32    26    27    1
    33    33    29   ar
    34    26    22   ar
    35     7     1    1
    36     6     4    1
    37    13     8   ar
@<TRIPOS>MOLECULE
*****
 33 37 0 0 0
SMALL
GASTEIGER

@<TRIPOS>ATOM
      1 N         138.1820  141.3191  163.0652 N.3     1  UNL1       -0.2726
      2 C         137.8225  139.9863  162.4783 C.3     1  UNL1        0.0721
      3 C         138.4323  138.9208  163.3402 C.3     1  UNL1        0.0190
      4 C         139.1686  139.5950  164.4597 C.3     1  UNL1        0.0201
      5 C         139.6452  138.3334  165.1162 C.3     1  UNL1        0.0061
      6 C         140.0047  139.6662  165.7031 C.3     1  UNL1        0.0237
      7 C         139.0139  141.0773  164.2897 C.3     1  UNL1        0.0724
      8 C         140.6949  140.4768  166.7597 C.ar    1  UNL1       -0.0225
      9 C         142.0420  140.0556  167.2675 C.ar    1  UNL1       -0.0043
     10 C         142.7323  140.8662  168.3241 C.ar    1  UNL1        0.0035
     11 C         142.0754  142.0980  168.8729 C.ar    1  UNL1        0.0714
     12 C         140.7283  142.5192  168.3651 C.ar    1  UNL1        0.0035
     13 C         140.0380  141.7086  167.3084 C.ar    1  UNL1       -0.0043
     14 C         142.7656  142.9086  169.9295 C.3     1  UNL1        0.4186
     15 F         143.4559  143.7193  170.9862 F       1  UNL1       -0.1659
     16 F         143.9791  142.0355  169.8066 F       1  UNL1       -0.1659
     17 F         141.5521  143.7817  170.0524 F       1  UNL1       -0.1659
     18 C         137.7801  142.6586  162.5227 C.3     1  UNL1        0.0730
     19 C         137.9832  143.8940  163.3489 C.3     1  UNL1        0.0294
     20 C         138.6326  145.1029  162.7433 C.3     1  UNL1        0.0666
     21 S         140.1017  145.0927  162.4407 S.3     1  UNL1       -0.0756
     22 C         142.3900  142.1614  163.5528 C.ar    1  UNL1        0.1843
     23 N         142.3799  143.0073  164.7915 N.ar    1  UNL1       -0.1267
     24 N         141.5215  144.2083  164.5257 N.ar    1  UNL1       -0.1221
     25 C         141.0010  144.1047  163.1227 C.ar    1  UNL1        0.1933
     26 N         141.5378  142.8397  162.5214 N.ar    1  UNL1       -0.2872
     27 C         141.2695  142.3405  161.1325 C.3     1  UNL1        0.1340
     28 C         145.6090  141.7216  163.8592 C.3     1  UNL1        0.1538
     29 N         144.6031  140.6627  163.5173 N.ar    1  UNL1       -0.2458
     30 N         144.9001  139.2158  163.2562 N.ar    1  UNL1       -0.1676
     31 C         143.6041  138.5237  162.9540 C.ar    1  UNL1        0.1218
     32 C         142.5060  139.5429  163.0283 C.ar    1  UNL1        0.0443
     33 C         143.1235  140.8648  163.3765 C.ar    1  UNL1        0.1153
@<TRIPOS>BOND
     1    28    29    1
     2    29    30   ar
     3    30    31   ar
     4    31    32   ar
     5    32    33   ar
     6    33    22    1
     7    22    23   ar
     8    23    24   ar
     9    24    25   ar
    10    25    21    1
    11    21    20    1
    12    20    19    1
    13    19    18    1
    14    18     1    1
    15     1     2    1
    16     2     3    1
    17     4     3    1
    18     4     5    1
    19     5     6    1
    20     6     8    1
    21     8     9   ar
    22     9    10   ar
    23    10    11   ar
    24    11    14    1
    25    14    15    1
    26    14    16    1
    27    14    17    1
    28    11    12   ar
    29    12    13   ar
    30     4     7    1
    31    25    26   ar
    32    26    27    1
    33    33    29   ar
    34    26    22   ar
    35     7     1    1
    36     6     4    1
    37    13     8   ar
@<TRIPOS>MOLECULE
*****
 33 37 0 0 0
SMALL
GASTEIGER

@<TRIPOS>ATOM
      1 N         140.3458  144.3248  163.3757 N.3     1  UNL1       -0.2726
      2 C         139.0974  144.1637  162.5599 C.3     1  UNL1        0.0721
      3 C         138.2974  143.0422  163.1534 C.3     1  UNL1        0.0190
      4 C         139.0514  142.5103  164.3361 C.3     1  UNL1        0.0201
      5 C         138.0500  141.4539  164.6982 C.3     1  UNL1        0.0061
      6 C         139.2983  141.6150  165.5140 C.3     1  UNL1        0.0237
      7 C         140.3174  143.3030  164.4734 C.3     1  UNL1        0.0724
      8 C         140.1617  141.1912  166.6651 C.ar    1  UNL1       -0.0225
      9 C         139.5754  140.3832  167.7846 C.ar    1  UNL1       -0.0043
     10 C         140.4388  139.9594  168.9357 C.ar    1  UNL1        0.0035
     11 C         141.8884  140.3436  168.9672 C.ar    1  UNL1        0.0714
     12 C         142.4747  141.1516  167.8476 C.ar    1  UNL1        0.0035
     13 C         141.6113  141.5754  166.6966 C.ar    1  UNL1       -0.0043
     14 C         142.7518  139.9198  170.1183 C.3     1  UNL1        0.4186
     15 F         143.6152  139.4960  171.2694 F       1  UNL1       -0.1659
     16 F         142.6997  138.5008  169.6349 F       1  UNL1       -0.1659
     17 F         142.8038  141.3388  170.6016 F       1  UNL1       -0.1659
     18 C         141.4320  145.3312  163.1359 C.3     1  UNL1        0.0730
     19 C         142.7258  145.2319  163.8882 C.3     1  UNL1        0.0294
     20 C         144.0015  144.9472  163.1522 C.3     1  UNL1        0.0666
     21 S         144.1404  143.6861  162.3521 S.3     1  UNL1       -0.0756
     22 C         143.1536  140.1598  163.6393 C.ar    1  UNL1        0.1843
     23 N         144.3719  140.4406  164.4683 N.ar    1  UNL1       -0.1267
     24 N         144.8898  141.7957  164.0869 N.ar    1  UNL1       -0.1221
     25 C         143.9916  142.3525  163.0223 C.ar    1  UNL1        0.1933
     26 N         142.9186  141.3415  162.7457 N.ar    1  UNL1       -0.2872
     27 C         141.8060  141.4866  161.7502 C.3     1  UNL1        0.1340
     28 C         142.7383  138.0186  161.2119 C.3     1  UNL1        0.1538
     29 N         142.1263  137.9317  162.5786 N.ar    1  UNL1       -0.2458
     30 N         141.2160  136.8453  163.0696 N.ar    1  UNL1       -0.1676
     31 C         140.8443  137.1580  164.4887 C.ar    1  UNL1        0.1218
     32 C         141.5249  138.4377  164.8749 C.ar    1  UNL1        0.0443
     33 C         142.3172  138.9158  163.6944 C.ar    1  UNL1        0.1153
@<TRIPOS>BOND
     1    28    29    1
     2    29    30   ar
     3    30    31   ar
     4    31    32   ar
     5    32    33   ar
     6    33    22    1
     7    22    23   ar
     8    23    24   ar
     9    24    25   ar
    10    25    21    1
    11    21    20    1
    12    20    19    1
    13    19    18    1
    14    18     1    1
    15     1     2    1
    16     2     3    1
    17     4     3    1
    18     4     5    1
    19     5     6    1
    20     6     8    1
    21     8     9   ar
    22     9    10   ar
    23    10    11   ar
    24    11    14    1
    25    14    15    1
    26    14    16    1
    27    14    17    1
    28    11    12   ar
    29    12    13   ar
    30     4     7    1
    31    25    26   ar
    32    26    27    1
    33    33    29   ar
    34    26    22   ar
    35     7     1    1
    36     6     4    1
    37    13     8   ar
@<TRIPOS>MOLECULE
*****
 33 37 0 0 0
SMALL
GASTEIGER

@<TRIPOS>ATOM
      1 N         138.0108  141.6666  162.5660 N.3     1  UNL1       -0.2726
      2 C         137.5657  140.6612  161.5457 C.3     1  UNL1        0.0721
      3 C         137.9284  139.2963  162.0512 C.3     1  UNL1        0.0190
      4 C         138.5976  139.4581  163.3838 C.3     1  UNL1        0.0201
      5 C         138.8305  137.9955  163.6211 C.3     1  UNL1        0.0061
      6 C         139.2756  139.0009  164.6413 C.3     1  UNL1        0.0237
      7 C         138.6485  140.9231  163.7020 C.3     1  UNL1        0.0724
      8 C         139.9240  139.3174  165.9564 C.ar    1  UNL1       -0.0225
      9 C         139.0768  139.6181  167.1572 C.ar    1  UNL1       -0.0043
     10 C         139.7253  139.9347  168.4722 C.ar    1  UNL1        0.0035
     11 C         141.2208  139.9505  168.5865 C.ar    1  UNL1        0.0714
     12 C         142.0680  139.6497  167.3856 C.ar    1  UNL1        0.0035
     13 C         141.4195  139.3332  166.0706 C.ar    1  UNL1       -0.0043
     14 C         141.8692  140.2670  169.9015 C.3     1  UNL1        0.4186
     15 F         142.5177  140.5835  171.2166 F       1  UNL1       -0.1659
     16 F         141.8489  141.7274  169.5600 F       1  UNL1       -0.1659
     17 F         141.8895  138.8065  170.2430 F       1  UNL1       -0.1659
     18 C         137.8470  143.1544  162.4676 C.3     1  UNL1        0.0730
     19 C         138.8918  143.9799  161.7771 C.3     1  UNL1        0.0294
     20 C         139.3282  145.2868  162.3703 C.3     1  UNL1        0.0666
     21 S         140.7680  145.5032  162.7309 S.3     1  UNL1       -0.0756
     22 C         143.1273  142.4215  162.6777 C.ar    1  UNL1        0.1843
     23 N         143.5389  143.1236  161.4176 N.ar    1  UNL1       -0.1267
     24 N         142.7052  144.3634  161.2842 N.ar    1  UNL1       -0.1221
     25 C         141.7783  144.4276  162.4618 C.ar    1  UNL1        0.1933
     26 N         142.0391  143.2276  163.3230 N.ar    1  UNL1       -0.2872
     27 C         141.3354  142.8923  164.6046 C.3     1  UNL1        0.1340
     28 C         142.0532  139.4172  161.9922 C.3     1  UNL1        0.1538
     29 N         143.2090  139.7579  162.8855 N.ar    1  UNL1       -0.2458
     30 N         144.0741  138.7774  163.6206 N.ar    1  UNL1       -0.1676
     31 C         145.1025  139.5524  164.3899 C.ar    1  UNL1        0.1218
     32 C         144.8729  141.0118  164.1304 C.ar    1  UNL1        0.0443
     33 C         143.7027  141.1388  163.2006 C.ar    1  UNL1        0.1153
@<TRIPOS>BOND
     1    28    29    1
     2    29    30   ar
     3    30    31   ar
     4    31    32   ar
     5    32    33   ar
     6    33    22    1
     7    22    23   ar
     8    23    24   ar
     9    24    25   ar
    10    25    21    1
    11    21    20    1
    12    20    19    1
    13    19    18    1
    14    18     1    1
    15     1     2    1
    16     2     3    1
    17     4     3    1
    18     4     5    1
    19     5     6    1
    20     6     8    1
    21     8     9   ar
    22     9    10   ar
    23    10    11   ar
    24    11    14    1
    25    14    15    1
    26    14    16    1
    27    14    17    1
    28    11    12   ar
    29    12    13   ar
    30     4     7    1
    31    25    26   ar
    32    26    27    1
    33    33    29   ar
    34    26    22   ar
    35     7     1    1
    36     6     4    1
    37    13     8   ar
