@<TRIPOS>MOLECULE
*****
 33 37 0 0 0
SMALL
GASTEIGER

@<TRIPOS>ATOM
      1 C         140.1884  142.2006  170.4999 C.3     1  UNL1        0.0473
      2 C         138.9752  140.2269  168.7594 C.3     1  UNL1        0.0002
      3 C         138.4622  139.9026  170.1311 C.3     1  UNL1        0.0001
      4 C         139.4008  141.0560  169.9347 C.3     1  UNL1        0.0037
      5 C         139.1772  139.0608  162.8772 C.2     1  UNL1        0.4046
      6 O         138.6621  137.7529  162.3538 O.2     1  UNL1       -0.2262
      7 N         139.1267  139.3523  164.3478 N.am    1  UNL1       -0.2460
      8 C         138.5611  138.3359  165.2948 C.3     1  UNL1        0.0967
      9 C         138.5106  138.6275  166.7653 C.3     1  UNL1        0.0217
     10 C         139.0257  139.9354  167.2888 C.3     1  UNL1        0.0034
     11 C         139.5913  140.9518  166.3417 C.3     1  UNL1        0.0217
     12 C         139.6418  140.6603  164.8712 C.3     1  UNL1        0.0967
     13 O         139.7427  140.0773  161.9301 O.3     1  UNL1       -0.4418
     14 C         137.9621  141.4914  161.5972 C.3     1  UNL1        0.0437
     15 C         138.8963  140.6163  160.8152 C.3     1  UNL1        0.1378
     16 C         138.3742  140.8514  159.4288 C.3     1  UNL1        0.0437
     17 C         139.5365  139.9283  159.6461 C.3     1  UNL1        0.0437
     18 C         141.5676  141.9670  171.0416 C.3     1  UNL1        0.2054
     19 O         142.4200  140.8704  170.4750 O.3     1  UNL1       -0.4754
     20 C         142.6846  140.8123  168.9997 C.ar    1  UNL1        0.1408
     21 C         143.0063  142.0684  168.2454 C.ar    1  UNL1        0.0367
     22 C         143.2709  142.0104  166.7701 C.ar    1  UNL1        0.0016
     23 C         143.2138  140.6962  166.0490 C.ar    1  UNL1        0.0146
     24 C         142.8922  139.4402  166.8033 C.ar    1  UNL1        0.1396
     25 F         142.8351  138.1262  166.0822 F       1  UNL1       -0.2044
     26 C         142.6276  139.4983  168.2786 C.ar    1  UNL1        0.0662
     27 C         143.4784  140.6382  164.5737 C.3     1  UNL1        0.1138
     28 C         144.2931  141.7117  163.9150 C.2     1  UNL1        0.2301
     29 O         145.7639  141.5113  163.6995 O.2     1  UNL1       -0.2745
     30 N         143.6369  142.9857  163.4719 N.am    1  UNL1       -0.2791
     31 C         144.1058  144.2430  162.8016 C.3     1  UNL1        0.0952
     32 C         142.7088  144.7874  162.8452 C.3     1  UNL1        0.0430
     33 C         142.2398  143.5301  163.5154 C.3     1  UNL1        0.0952
@<TRIPOS>BOND
     1    14    15    1
     2    15    13    1
     3    13     5    1
     4     5     6    2
     5     5     7   am
     6     7     8    1
     7     8     9    1
     8     9    10    1
     9     2    10    1
    10     2     3    1
    11     3     4    1
    12     4     1    1
    13     1    18    1
    14    18    19    1
    15    19    20    1
    16    20    21   ar
    17    21    22   ar
    18    22    23   ar
    19    23    27    1
    20    27    28    1
    21    28    29    2
    22    28    30   am
    23    30    31    1
    24    31    32    1
    25    32    33    1
    26    23    24   ar
    27    24    25    1
    28    24    26   ar
    29    10    11    1
    30    11    12    1
    31    15    16    1
    32    16    17    1
    33    17    15    1
    34    12     7    1
    35     4     2    1
    36    26    20   ar
    37    33    30    1
@<TRIPOS>MOLECULE
*****
 33 37 0 0 0
SMALL
GASTEIGER

@<TRIPOS>ATOM
      1 C         140.5125  145.1485  161.8368 C.3     1  UNL1        0.0473
      2 C         142.4144  143.8305  163.5812 C.3     1  UNL1        0.0002
      3 C         143.2399  144.7501  162.7309 C.3     1  UNL1        0.0001
      4 C         141.7529  144.6886  162.5438 C.3     1  UNL1        0.0037
      5 C         142.0356  139.7254  167.9406 C.2     1  UNL1        0.4046
      6 O         143.1600  138.7567  168.1584 O.2     1  UNL1       -0.2262
      7 N         142.1303  140.7517  166.8507 N.am    1  UNL1       -0.2460
      8 C         143.3494  140.8093  165.9787 C.3     1  UNL1        0.0967
      9 C         143.4441  141.8356  164.8889 C.3     1  UNL1        0.0217
     10 C         142.3197  142.8042  164.6711 C.3     1  UNL1        0.0034
     11 C         141.1006  142.7466  165.5431 C.3     1  UNL1        0.0217
     12 C         141.0059  141.7203  166.6329 C.3     1  UNL1        0.0967
     13 O         140.8165  139.6677  168.8126 O.3     1  UNL1       -0.4418
     14 C         139.2254  140.9084  169.9127 C.3     1  UNL1        0.0437
     15 C         140.6899  140.5926  169.9868 C.3     1  UNL1        0.1378
     16 C         141.0718  141.4078  171.1866 C.3     1  UNL1        0.0437
     17 C         142.1104  140.5980  170.4685 C.3     1  UNL1        0.0437
     18 C         139.3296  145.6215  162.6286 C.3     1  UNL1        0.2054
     19 O         138.0241  144.8884  162.5370 O.3     1  UNL1       -0.4754
     20 C         138.0055  143.3886  162.5231 C.ar    1  UNL1        0.1408
     21 C         138.1229  142.6491  161.2234 C.ar    1  UNL1        0.0367
     22 C         138.1043  141.1493  161.2095 C.ar    1  UNL1        0.0016
     23 C         137.9683  140.3890  162.4954 C.ar    1  UNL1        0.0146
     24 C         137.8509  141.1285  163.7951 C.ar    1  UNL1        0.1396
     25 F         137.7148  140.3682  165.0810 F       1  UNL1       -0.2044
     26 C         137.8695  142.6283  163.8090 C.ar    1  UNL1        0.0662
     27 C         137.9497  138.8892  162.4816 C.3     1  UNL1        0.1138
     28 C         139.2083  138.1262  162.1917 C.2     1  UNL1        0.2301
     29 O         139.4851  137.6366  160.8012 O.2     1  UNL1       -0.2745
     30 N         140.1899  137.8528  163.2924 N.am    1  UNL1       -0.2791
     31 C         141.5109  137.1481  163.3848 C.3     1  UNL1        0.0952
     32 C         141.5782  137.4661  164.8491 C.3     1  UNL1        0.0430
     33 C         140.2573  138.1708  164.7568 C.3     1  UNL1        0.0952
@<TRIPOS>BOND
     1    14    15    1
     2    15    13    1
     3    13     5    1
     4     5     6    2
     5     5     7   am
     6     7     8    1
     7     8     9    1
     8     9    10    1
     9     2    10    1
    10     2     3    1
    11     3     4    1
    12     4     1    1
    13     1    18    1
    14    18    19    1
    15    19    20    1
    16    20    21   ar
    17    21    22   ar
    18    22    23   ar
    19    23    27    1
    20    27    28    1
    21    28    29    2
    22    28    30   am
    23    30    31    1
    24    31    32    1
    25    32    33    1
    26    23    24   ar
    27    24    25    1
    28    24    26   ar
    29    10    11    1
    30    11    12    1
    31    15    16    1
    32    16    17    1
    33    17    15    1
    34    12     7    1
    35     4     2    1
    36    26    20   ar
    37    33    30    1
@<TRIPOS>MOLECULE
*****
 33 37 0 0 0
SMALL
GASTEIGER

@<TRIPOS>ATOM
      1 C         137.4996  140.7070  161.8633 C.3     1  UNL1        0.0473
      2 C         139.1239  139.3681  163.8548 C.3     1  UNL1        0.0002
      3 C         139.4066  138.6435  162.5722 C.3     1  UNL1        0.0001
      4 C         138.4458  139.7953  162.5868 C.3     1  UNL1        0.0037
      5 C         140.0370  140.0546  169.7451 C.2     1  UNL1        0.4046
      6 O         138.9306  139.7617  170.7147 O.2     1  UNL1       -0.2262
      7 N         139.8087  139.8829  168.2725 N.am    1  UNL1       -0.2460
      8 C         138.4740  139.4185  167.7695 C.3     1  UNL1        0.0967
      9 C         138.2458  139.2469  166.2970 C.3     1  UNL1        0.0217
     10 C         139.3522  139.5397  165.3274 C.3     1  UNL1        0.0034
     11 C         140.6868  140.0042  165.8303 C.3     1  UNL1        0.0217
     12 C         140.9151  140.1758  167.3028 C.3     1  UNL1        0.0967
     13 O         141.3716  140.5190  170.2480 O.3     1  UNL1       -0.4418
     14 C         143.2244  141.7779  169.7343 C.3     1  UNL1        0.0437
     15 C         141.7766  141.9541  170.0849 C.3     1  UNL1        0.1378
     16 C         141.6788  143.4504  170.0435 C.3     1  UNL1        0.0437
     17 C         140.4695  142.6286  170.3788 C.3     1  UNL1        0.0437
     18 C         138.0322  141.8572  161.0612 C.3     1  UNL1        0.2054
     19 O         138.1406  143.2183  161.6825 O.3     1  UNL1       -0.4754
     20 C         139.4325  143.6577  162.3053 C.ar    1  UNL1        0.1408
     21 C         140.3911  144.5068  161.5240 C.ar    1  UNL1        0.0367
     22 C         141.6830  144.9462  162.1468 C.ar    1  UNL1        0.0016
     23 C         142.0164  144.5366  163.5508 C.ar    1  UNL1        0.0146
     24 C         141.0578  143.6875  164.3319 C.ar    1  UNL1        0.1396
     25 F         141.3912  143.2779  165.7358 F       1  UNL1       -0.2044
     26 C         139.7659  143.2481  163.7092 C.ar    1  UNL1        0.0662
     27 C         143.3083  144.9760  164.1735 C.3     1  UNL1        0.1138
     28 C         144.2909  143.9537  164.6630 C.2     1  UNL1        0.2301
     29 O         144.9467  144.1242  166.0012 O.2     1  UNL1       -0.2745
     30 N         144.6176  142.7609  163.8142 N.am    1  UNL1       -0.2791
     31 C         145.5175  141.5697  163.9600 C.3     1  UNL1        0.0952
     32 C         145.0796  141.0740  162.6137 C.3     1  UNL1        0.0430
     33 C         144.1797  142.2652  162.4678 C.3     1  UNL1        0.0952
@<TRIPOS>BOND
     1    14    15    1
     2    15    13    1
     3    13     5    1
     4     5     6    2
     5     5     7   am
     6     7     8    1
     7     8     9    1
     8     9    10    1
     9     2    10    1
    10     2     3    1
    11     3     4    1
    12     4     1    1
    13     1    18    1
    14    18    19    1
    15    19    20    1
    16    20    21   ar
    17    21    22   ar
    18    22    23   ar
    19    23    27    1
    20    27    28    1
    21    28    29    2
    22    28    30   am
    23    30    31    1
    24    31    32    1
    25    32    33    1
    26    23    24   ar
    27    24    25    1
    28    24    26   ar
    29    10    11    1
    30    11    12    1
    31    15    16    1
    32    16    17    1
    33    17    15    1
    34    12     7    1
    35     4     2    1
    36    26    20   ar
    37    33    30    1
@<TRIPOS>MOLECULE
*****
 33 37 0 0 0
SMALL
GASTEIGER

@<TRIPOS>ATOM
      1 C         141.2536  140.9689  170.3384 C.3     1  UNL1        0.0473
      2 C         142.9673  142.2615  168.3918 C.3     1  UNL1        0.0002
      3 C         143.7723  142.2293  169.6570 C.3     1  UNL1        0.0001
      4 C         142.3876  141.6530  169.6342 C.3     1  UNL1        0.0037
      5 C         142.4469  143.7413  162.6004 C.2     1  UNL1        0.4046
      6 O         143.6691  144.0836  161.8010 O.2     1  UNL1       -0.2262
      7 N         142.5770  143.3713  164.0483 N.am    1  UNL1       -0.2460
      8 C         143.9293  143.3437  164.6967 C.3     1  UNL1        0.0967
      9 C         144.0594  142.9737  166.1445 C.3     1  UNL1        0.0217
     10 C         142.8371  142.6315  166.9439 C.3     1  UNL1        0.0034
     11 C         141.4848  142.6591  166.2955 C.3     1  UNL1        0.0217
     12 C         141.3548  143.0291  164.8477 C.3     1  UNL1        0.0967
     13 O         141.0946  143.7690  161.9520 O.3     1  UNL1       -0.4418
     14 C         140.9933  145.2047  160.1604 C.3     1  UNL1        0.0437
     15 C         140.4761  145.0790  161.5628 C.3     1  UNL1        0.1378
     16 C         139.6780  146.3453  161.6606 C.3     1  UNL1        0.0437
     17 C         139.7442  145.4081  162.8301 C.3     1  UNL1        0.0437
     18 C         140.3689  140.0182  169.5877 C.3     1  UNL1        0.2054
     19 O         139.6520  140.4773  168.3525 O.3     1  UNL1       -0.4754
     20 C         139.7531  139.6792  167.0864 C.ar    1  UNL1        0.1408
     21 C         138.5082  139.1973  166.4023 C.ar    1  UNL1        0.0367
     22 C         138.6092  138.3993  165.1362 C.ar    1  UNL1        0.0016
     23 C         139.9552  138.0832  164.5543 C.ar    1  UNL1        0.0146
     24 C         141.2000  138.5651  165.2384 C.ar    1  UNL1        0.1396
     25 F         142.5459  138.2490  164.6565 F       1  UNL1       -0.2044
     26 C         141.0989  139.3631  166.5045 C.ar    1  UNL1        0.0662
     27 C         140.0562  137.2852  163.2882 C.3     1  UNL1        0.1138
     28 C         140.3107  137.9788  161.9827 C.2     1  UNL1        0.2301
     29 O         141.6770  137.9374  161.3653 O.2     1  UNL1       -0.2745
     30 N         139.1987  138.7139  161.2948 N.am    1  UNL1       -0.2791
     31 C         139.0740  139.4999  160.0234 C.3     1  UNL1        0.0952
     32 C         137.6262  139.7534  160.3220 C.3     1  UNL1        0.0430
     33 C         137.7507  138.9674  161.5934 C.3     1  UNL1        0.0952
@<TRIPOS>BOND
     1    14    15    1
     2    15    13    1
     3    13     5    1
     4     5     6    2
     5     5     7   am
     6     7     8    1
     7     8     9    1
     8     9    10    1
     9     2    10    1
    10     2     3    1
    11     3     4    1
    12     4     1    1
    13     1    18    1
    14    18    19    1
    15    19    20    1
    16    20    21   ar
    17    21    22   ar
    18    22    23   ar
    19    23    27    1
    20    27    28    1
    21    28    29    2
    22    28    30   am
    23    30    31    1
    24    31    32    1
    25    32    33    1
    26    23    24   ar
    27    24    25    1
    28    24    26   ar
    29    10    11    1
    30    11    12    1
    31    15    16    1
    32    16    17    1
    33    17    15    1
    34    12     7    1
    35     4     2    1
    36    26    20   ar
    37    33    30    1
@<TRIPOS>MOLECULE
*****
 33 37 0 0 0
SMALL
GASTEIGER

@<TRIPOS>ATOM
      1 C         143.3680  138.1398  160.8687 C.3     1  UNL1        0.0473
      2 C         141.8654  138.2570  163.3436 C.3     1  UNL1        0.0002
      3 C         141.1149  137.2876  162.4793 C.3     1  UNL1        0.0001
      4 C         142.3616  137.9428  161.9634 C.3     1  UNL1        0.0037
      5 C         142.4527  141.2210  168.5273 C.2     1  UNL1        0.4046
      6 O         143.3143  140.6592  169.6190 O.2     1  UNL1       -0.2262
      7 N         142.3059  140.4800  167.2313 N.am    1  UNL1       -0.2460
      8 C         143.0207  139.1772  167.0272 C.3     1  UNL1        0.0967
      9 C         142.8739  138.4362  165.7313 C.3     1  UNL1        0.0217
     10 C         142.0122  138.9980  164.6396 C.3     1  UNL1        0.0034
     11 C         141.2974  140.3008  164.8437 C.3     1  UNL1        0.0217
     12 C         141.4442  141.0418  166.1396 C.3     1  UNL1        0.0967
     13 O         141.7378  142.5238  168.7314 O.3     1  UNL1       -0.4418
     14 C         140.0395  141.2167  169.5611 C.3     1  UNL1        0.0437
     15 C         140.5888  142.6063  169.6922 C.3     1  UNL1        0.1378
     16 C         139.6306  143.1714  170.6984 C.3     1  UNL1        0.0437
     17 C         140.7392  144.0246  170.1568 C.3     1  UNL1        0.0437
     18 C         144.3315  139.2875  160.9332 C.3     1  UNL1        0.2054
     19 O         144.5694  139.9948  162.2345 O.3     1  UNL1       -0.4754
     20 C         143.8752  141.2935  162.5200 C.ar    1  UNL1        0.1408
     21 C         142.6629  141.6858  161.7285 C.ar    1  UNL1        0.0367
     22 C         141.9688  142.9845  162.0140 C.ar    1  UNL1        0.0016
     23 C         142.4869  143.8909  163.0911 C.ar    1  UNL1        0.0146
     24 C         143.6992  143.4986  163.8825 C.ar    1  UNL1        0.1396
     25 F         144.2173  144.4050  164.9595 F       1  UNL1       -0.2044
     26 C         144.3934  142.1999  163.5970 C.ar    1  UNL1        0.0662
     27 C         141.7928  145.1896  163.3766 C.3     1  UNL1        0.1138
     28 C         140.3768  145.3978  162.9274 C.2     1  UNL1        0.2301
     29 O         140.0600  146.4546  161.9112 O.2     1  UNL1       -0.2745
     30 N         139.2777  144.5491  163.4944 N.am    1  UNL1       -0.2791
     31 C         137.7931  144.4654  163.2972 C.3     1  UNL1        0.0952
     32 C         137.7232  143.3489  164.2964 C.3     1  UNL1        0.0430
     33 C         139.2078  143.4325  164.4937 C.3     1  UNL1        0.0952
@<TRIPOS>BOND
     1    14    15    1
     2    15    13    1
     3    13     5    1
     4     5     6    2
     5     5     7   am
     6     7     8    1
     7     8     9    1
     8     9    10    1
     9     2    10    1
    10     2     3    1
    11     3     4    1
    12     4     1    1
    13     1    18    1
    14    18    19    1
    15    19    20    1
    16    20    21   ar
    17    21    22   ar
    18    22    23   ar
    19    23    27    1
    20    27    28    1
    21    28    29    2
    22    28    30   am
    23    30    31    1
    24    31    32    1
    25    32    33    1
    26    23    24   ar
    27    24    25    1
    28    24    26   ar
    29    10    11    1
    30    11    12    1
    31    15    16    1
    32    16    17    1
    33    17    15    1
    34    12     7    1
    35     4     2    1
    36    26    20   ar
    37    33    30    1
@<TRIPOS>MOLECULE
*****
 33 37 0 0 0
SMALL
GASTEIGER

@<TRIPOS>ATOM
      1 C         141.8532  141.9852  169.3384 C.3     1  UNL1        0.0473
      2 C         140.0953  140.2563  167.8160 C.3     1  UNL1        0.0002
      3 C         139.4305  140.4064  169.1522 C.3     1  UNL1        0.0001
      4 C         140.7330  141.0989  168.8806 C.3     1  UNL1        0.0037
      5 C         140.1576  137.9638  162.2716 C.2     1  UNL1        0.4046
      6 O         138.9384  138.0662  161.4039 O.2     1  UNL1       -0.2262
      7 N         140.1420  138.5369  163.6577 N.am    1  UNL1       -0.2460
      8 C         138.9072  139.2125  164.1761 C.3     1  UNL1        0.0967
      9 C         138.8916  139.7856  165.5622 C.3     1  UNL1        0.0217
     10 C         140.1109  139.6831  166.4299 C.3     1  UNL1        0.0034
     11 C         141.3457  139.0076  165.9115 C.3     1  UNL1        0.0217
     12 C         141.3613  138.4345  164.5254 C.3     1  UNL1        0.0967
     13 O         141.3925  137.2882  161.7532 O.3     1  UNL1       -0.4418
     14 C         141.6978  138.3931  159.7614 C.3     1  UNL1        0.0437
     15 C         142.4367  138.0864  161.0303 C.3     1  UNL1        0.1378
     16 C         143.7374  138.7781  160.7480 C.3     1  UNL1        0.0437
     17 C         143.5381  138.0569  162.0481 C.3     1  UNL1        0.0437
     18 C         143.2039  141.8800  168.6945 C.3     1  UNL1        0.2054
     19 O         143.5590  142.7770  167.5458 O.3     1  UNL1       -0.4754
     20 C         143.0415  142.4751  166.1707 C.ar    1  UNL1        0.1408
     21 C         143.9207  141.7789  165.1745 C.ar    1  UNL1        0.0367
     22 C         143.4032  141.4771  163.7993 C.ar    1  UNL1        0.0016
     23 C         142.0064  141.8714  163.4204 C.ar    1  UNL1        0.0146
     24 C         141.1272  142.5675  164.4166 C.ar    1  UNL1        0.1396
     25 F         139.7305  142.9618  164.0376 F       1  UNL1       -0.2044
     26 C         141.6447  142.8694  165.7917 C.ar    1  UNL1        0.0662
     27 C         141.4888  141.5695  162.0452 C.3     1  UNL1        0.1138
     28 C         141.8953  142.4295  160.8854 C.2     1  UNL1        0.2301
     29 O         142.9869  141.9763  159.9619 O.2     1  UNL1       -0.2745
     30 N         141.2101  143.7428  160.6490 N.am    1  UNL1       -0.2791
     31 C         141.3371  144.8375  159.6315 C.3     1  UNL1        0.0952
     32 C         140.2410  145.6000  160.3148 C.3     1  UNL1        0.0430
     33 C         140.1139  144.5054  161.3325 C.3     1  UNL1        0.0952
@<TRIPOS>BOND
     1    14    15    1
     2    15    13    1
     3    13     5    1
     4     5     6    2
     5     5     7   am
     6     7     8    1
     7     8     9    1
     8     9    10    1
     9     2    10    1
    10     2     3    1
    11     3     4    1
    12     4     1    1
    13     1    18    1
    14    18    19    1
    15    19    20    1
    16    20    21   ar
    17    21    22   ar
    18    22    23   ar
    19    23    27    1
    20    27    28    1
    21    28    29    2
    22    28    30   am
    23    30    31    1
    24    31    32    1
    25    32    33    1
    26    23    24   ar
    27    24    25    1
    28    24    26   ar
    29    10    11    1
    30    11    12    1
    31    15    16    1
    32    16    17    1
    33    17    15    1
    34    12     7    1
    35     4     2    1
    36    26    20   ar
    37    33    30    1
@<TRIPOS>MOLECULE
*****
 33 37 0 0 0
SMALL
GASTEIGER

@<TRIPOS>ATOM
      1 C         137.7827  142.5768  162.1366 C.3     1  UNL1        0.0473
      2 C         138.7014  140.5968  164.0424 C.3     1  UNL1        0.0002
      3 C         138.6819  139.8851  162.7222 C.3     1  UNL1        0.0001
      4 C         138.2698  141.3250  162.8042 C.3     1  UNL1        0.0037
      5 C         139.7431  140.5583  169.9512 C.2     1  UNL1        0.4046
      6 O         139.1541  139.4784  170.8096 O.2     1  UNL1       -0.2262
      7 N         139.4827  140.5679  168.4740 N.am    1  UNL1       -0.2460
      8 C         138.6332  139.4977  167.8552 C.3     1  UNL1        0.0967
      9 C         138.3728  139.5073  166.3781 C.3     1  UNL1        0.0217
     10 C         138.9619  140.5872  165.5197 C.3     1  UNL1        0.0034
     11 C         139.8114  141.6574  166.1384 C.3     1  UNL1        0.0217
     12 C         140.0718  141.6478  167.6156 C.3     1  UNL1        0.0967
     13 O         140.5926  141.6285  170.5700 O.3     1  UNL1       -0.4418
     14 C         142.2447  143.1698  170.1498 C.3     1  UNL1        0.0437
     15 C         142.0617  141.6860  170.2720 C.3     1  UNL1        0.1378
     16 C         143.4670  141.2283  170.0164 C.3     1  UNL1        0.0437
     17 C         142.3886  140.2222  170.2907 C.3     1  UNL1        0.0437
     18 C         137.8019  143.8795  162.8800 C.3     1  UNL1        0.2054
     19 O         138.9116  144.8610  162.6447 O.3     1  UNL1       -0.4754
     20 C         140.3276  144.4828  162.9638 C.ar    1  UNL1        0.1408
     21 C         140.7892  144.4403  164.3905 C.ar    1  UNL1        0.0367
     22 C         142.2053  144.0620  164.7096 C.ar    1  UNL1        0.0016
     23 C         143.1596  143.7263  163.6020 C.ar    1  UNL1        0.0146
     24 C         142.6980  143.7688  162.1755 C.ar    1  UNL1        0.1396
     25 F         143.6523  143.4331  161.0681 F       1  UNL1       -0.2044
     26 C         141.2820  144.1471  161.8564 C.ar    1  UNL1        0.0662
     27 C         144.5757  143.3481  163.9211 C.3     1  UNL1        0.1138
     28 C         145.0422  141.9388  163.7058 C.2     1  UNL1        0.2301
     29 O         146.1221  141.6509  162.7053 O.2     1  UNL1       -0.2745
     30 N         144.4289  140.8175  164.4909 N.am    1  UNL1       -0.2791
     31 C         144.6265  139.3317  164.5498 C.3     1  UNL1        0.0952
     32 C         143.5616  139.2317  165.6013 C.3     1  UNL1        0.0430
     33 C         143.3639  140.7175  165.5425 C.3     1  UNL1        0.0952
@<TRIPOS>BOND
     1    14    15    1
     2    15    13    1
     3    13     5    1
     4     5     6    2
     5     5     7   am
     6     7     8    1
     7     8     9    1
     8     9    10    1
     9     2    10    1
    10     2     3    1
    11     3     4    1
    12     4     1    1
    13     1    18    1
    14    18    19    1
    15    19    20    1
    16    20    21   ar
    17    21    22   ar
    18    22    23   ar
    19    23    27    1
    20    27    28    1
    21    28    29    2
    22    28    30   am
    23    30    31    1
    24    31    32    1
    25    32    33    1
    26    23    24   ar
    27    24    25    1
    28    24    26   ar
    29    10    11    1
    30    11    12    1
    31    15    16    1
    32    16    17    1
    33    17    15    1
    34    12     7    1
    35     4     2    1
    36    26    20   ar
    37    33    30    1
@<TRIPOS>MOLECULE
*****
 33 37 0 0 0
SMALL
GASTEIGER

@<TRIPOS>ATOM
      1 C         142.1427  139.9679  169.6005 C.3     1  UNL1        0.0473
      2 C         143.0704  142.1968  167.9979 C.3     1  UNL1        0.0002
      3 C         143.7935  142.3311  169.3052 C.3     1  UNL1        0.0001
      4 C         142.8336  141.1984  169.0919 C.3     1  UNL1        0.0037
      5 C         141.9476  144.1926  162.4520 C.2     1  UNL1        0.4046
      6 O         143.0787  144.4200  161.4934 O.2     1  UNL1       -0.2262
      7 N         142.2283  143.6937  163.8385 N.am    1  UNL1       -0.2460
      8 C         143.6401  143.4221  164.2663 C.3     1  UNL1        0.0967
      9 C         143.9208  142.9231  165.6528 C.3     1  UNL1        0.0217
     10 C         142.7897  142.6958  166.6114 C.3     1  UNL1        0.0034
     11 C         141.3779  142.9674  166.1836 C.3     1  UNL1        0.0217
     12 C         141.0972  143.4663  164.7971 C.3     1  UNL1        0.0967
     13 O         140.5358  144.4642  162.0242 O.3     1  UNL1       -0.4418
     14 C         138.3718  143.8722  162.5222 C.3     1  UNL1        0.0437
     15 C         139.5808  143.3251  161.8229 C.3     1  UNL1        0.1378
     16 C         139.0456  141.9960  161.3788 C.3     1  UNL1        0.0437
     17 C         140.4582  142.3825  161.0538 C.3     1  UNL1        0.0437
     18 C         140.6443  139.9131  169.6442 C.3     1  UNL1        0.2054
     19 O         139.8405  140.4424  168.4936 O.3     1  UNL1       -0.4754
     20 C         139.7646  139.6665  167.2121 C.ar    1  UNL1        0.1408
     21 C         138.4478  139.1244  166.7405 C.ar    1  UNL1        0.0367
     22 C         138.3718  138.3486  165.4589 C.ar    1  UNL1        0.0016
     23 C         139.6126  138.1149  164.6490 C.ar    1  UNL1        0.0146
     24 C         140.9293  138.6569  165.1207 C.ar    1  UNL1        0.1396
     25 F         142.1700  138.4232  164.3108 F       1  UNL1       -0.2044
     26 C         141.0053  139.4328  166.4022 C.ar    1  UNL1        0.0662
     27 C         139.5367  137.3390  163.3675 C.3     1  UNL1        0.1138
     28 C         139.1279  138.0258  162.0981 C.2     1  UNL1        0.2301
     29 O         137.6965  138.4215  161.8869 O.2     1  UNL1       -0.2745
     30 N         140.1505  138.3168  161.0400 N.am    1  UNL1       -0.2791
     31 C         140.1224  138.9645  159.6874 C.3     1  UNL1        0.0952
     32 C         141.5966  138.7284  159.5436 C.3     1  UNL1        0.0430
     33 C         141.6248  138.0807  160.8963 C.3     1  UNL1        0.0952
@<TRIPOS>BOND
     1    14    15    1
     2    15    13    1
     3    13     5    1
     4     5     6    2
     5     5     7   am
     6     7     8    1
     7     8     9    1
     8     9    10    1
     9     2    10    1
    10     2     3    1
    11     3     4    1
    12     4     1    1
    13     1    18    1
    14    18    19    1
    15    19    20    1
    16    20    21   ar
    17    21    22   ar
    18    22    23   ar
    19    23    27    1
    20    27    28    1
    21    28    29    2
    22    28    30   am
    23    30    31    1
    24    31    32    1
    25    32    33    1
    26    23    24   ar
    27    24    25    1
    28    24    26   ar
    29    10    11    1
    30    11    12    1
    31    15    16    1
    32    16    17    1
    33    17    15    1
    34    12     7    1
    35     4     2    1
    36    26    20   ar
    37    33    30    1
@<TRIPOS>MOLECULE
*****
 33 37 0 0 0
SMALL
GASTEIGER

@<TRIPOS>ATOM
      1 C         140.2150  145.5397  161.2506 C.3     1  UNL1        0.0473
      2 C         141.8662  143.3930  162.2810 C.3     1  UNL1        0.0002
      3 C         142.3379  143.6039  160.8729 C.3     1  UNL1        0.0001
      4 C         141.2262  144.4458  161.4255 C.3     1  UNL1        0.0037
      5 C         142.2547  140.4741  167.5088 C.2     1  UNL1        0.4046
      6 O         142.7740  139.0673  167.5455 O.2     1  UNL1       -0.2262
      7 N         142.1575  141.2038  166.2018 N.am    1  UNL1       -0.2460
      8 C         142.5797  140.5268  164.9317 C.3     1  UNL1        0.0967
      9 C         142.4826  141.2565  163.6248 C.3     1  UNL1        0.0217
     10 C         141.9633  142.6632  163.5880 C.3     1  UNL1        0.0034
     11 C         141.5411  143.3403  164.8582 C.3     1  UNL1        0.0217
     12 C         141.6383  142.6106  166.1651 C.3     1  UNL1        0.0967
     13 O         141.8325  141.1511  168.7790 O.3     1  UNL1       -0.4418
     14 C         140.9431  141.0238  170.8941 C.3     1  UNL1        0.0437
     15 C         140.5713  140.7271  169.4716 C.3     1  UNL1        0.1378
     16 C         139.1811  140.2000  169.6702 C.3     1  UNL1        0.0437
     17 C         139.7617  140.2831  168.2895 C.3     1  UNL1        0.0437
     18 C         139.2166  145.8186  162.3348 C.3     1  UNL1        0.2054
     19 O         137.9684  144.9927  162.4354 O.3     1  UNL1       -0.4754
     20 C         138.0637  143.5171  162.6872 C.ar    1  UNL1        0.1408
     21 C         138.2301  143.0042  164.0870 C.ar    1  UNL1        0.0367
     22 C         138.3254  141.5286  164.3387 C.ar    1  UNL1        0.0016
     23 C         138.2544  140.5658  163.1906 C.ar    1  UNL1        0.0146
     24 C         138.0880  141.0786  161.7909 C.ar    1  UNL1        0.1396
     25 F         138.0169  140.1158  160.6430 F       1  UNL1       -0.2044
     26 C         137.9927  142.5542  161.5392 C.ar    1  UNL1        0.0662
     27 C         138.3497  139.0901  163.4424 C.3     1  UNL1        0.1138
     28 C         139.6672  138.4760  163.8126 C.2     1  UNL1        0.2301
     29 O         139.9544  138.1216  165.2415 O.2     1  UNL1       -0.2745
     30 N         140.6976  138.2163  162.7538 N.am    1  UNL1       -0.2791
     31 C         142.0812  137.6374  162.7395 C.3     1  UNL1        0.0952
     32 C         142.1546  137.8491  161.2565 C.3     1  UNL1        0.0430
     33 C         140.7710  138.4281  161.2706 C.3     1  UNL1        0.0952
@<TRIPOS>BOND
     1    14    15    1
     2    15    13    1
     3    13     5    1
     4     5     6    2
     5     5     7   am
     6     7     8    1
     7     8     9    1
     8     9    10    1
     9     2    10    1
    10     2     3    1
    11     3     4    1
    12     4     1    1
    13     1    18    1
    14    18    19    1
    15    19    20    1
    16    20    21   ar
    17    21    22   ar
    18    22    23   ar
    19    23    27    1
    20    27    28    1
    21    28    29    2
    22    28    30   am
    23    30    31    1
    24    31    32    1
    25    32    33    1
    26    23    24   ar
    27    24    25    1
    28    24    26   ar
    29    10    11    1
    30    11    12    1
    31    15    16    1
    32    16    17    1
    33    17    15    1
    34    12     7    1
    35     4     2    1
    36    26    20   ar
    37    33    30    1
