@<TRIPOS>MOLECULE
*****
 36 41 0 0 0
SMALL
GASTEIGER

@<TRIPOS>ATOM
      1 C         139.8934  146.2439  156.1213 C.ar    1  UNL1       -0.0065
      2 C         140.8203  145.6373  155.1100 C.ar    1  UNL1       -0.0032
      3 C         141.9374  144.7423  155.5584 C.ar    1  UNL1       -0.0026
      4 C         142.1276  144.4540  157.0181 C.ar    1  UNL1        0.0019
      5 C         141.2007  145.0607  158.0294 C.ar    1  UNL1       -0.0200
      6 C         140.0836  145.9556  157.5810 C.ar    1  UNL1       -0.0071
      7 C         141.6321  144.5985  159.3896 C.3     1  UNL1        0.0519
      8 C         142.8257  143.7061  159.2190 C.2     1  UNL1        0.0074
      9 C         143.8300  142.8689  159.9542 C.2     1  UNL1        0.0976
     10 N         144.7569  142.2623  158.9429 N.2     1  UNL1       -0.1526
     11 N         144.3254  142.7245  157.5827 N.2     1  UNL1       -0.1678
     12 C         143.1319  143.6168  157.7533 C.3     1  UNL1        0.1672
     13 C         143.8957  142.6729  161.4399 C.ar    1  UNL1        0.0265
     14 C         144.3256  143.6987  162.4464 C.ar    1  UNL1        0.0376
     15 S         144.2387  143.0763  163.8084 S.2     1  UNL1       -0.0780
     16 C         143.7552  141.6660  163.6437 C.ar    1  UNL1        0.0711
     17 C         143.5433  141.4166  162.1799 C.ar    1  UNL1        0.0168
     18 C         143.5243  140.6783  164.7488 C.1     1  UNL1       -0.0543
     19 C         143.2933  139.6907  165.8539 C.1     1  UNL1       -0.0388
     20 C         143.0624  138.7031  166.9590 C.3     1  UNL1        0.2814
     21 O         143.0907  139.1568  168.3885 O.3     1  UNL1       -0.4612
     22 C         142.4137  140.4360  168.7829 C.ar    1  UNL1        0.1401
     23 C         143.2058  141.5374  169.4228 C.ar    1  UNL1        0.0378
     24 C         142.5289  142.8165  169.8172 C.ar    1  UNL1        0.0145
     25 C         141.0599  142.9942  169.5717 C.ar    1  UNL1        0.0579
     26 CL        140.3829  144.2734  169.9661 Cl      1  UNL1       -0.0822
     27 C         140.2677  141.8928  168.9318 C.ar    1  UNL1        0.0145
     28 C         140.9447  140.6137  168.5374 C.ar    1  UNL1        0.0378
     29 C         138.7762  147.1389  155.6729 C.3     1  UNL1        0.0992
     30 C         139.9197  152.8250  154.1367 C.3     1  UNL1        0.0897
     31 N         139.6338  151.4035  154.5208 N.3     1  UNL1       -0.2691
     32 C         140.1959  150.2783  153.7035 C.3     1  UNL1        0.0897
     33 C         139.9101  148.8567  154.0875 C.3     1  UNL1        0.0899
     34 N         139.0621  148.5604  155.2888 N.3     1  UNL1       -0.2665
     35 C         138.5000  149.6857  156.1061 C.3     1  UNL1        0.0899
     36 C         138.7858  151.1072  155.7221 C.3     1  UNL1        0.0897
@<TRIPOS>BOND
     1    30    31    1
     2    31    32    1
     3    32    33    1
     4    33    34    1
     5    34    29    1
     6    29     1    1
     7     1     2   ar
     8     2     3   ar
     9     3     4   ar
    10     4     5   ar
    11     5     6   ar
    12     5     7    1
    13     7     8    1
    14     8     9    2
    15     9    13    1
    16    13    14   ar
    17    14    15   ar
    18    15    16   ar
    19    16    18    1
    20    18    19    3
    21    19    20    1
    22    20    21    1
    23    21    22    1
    24    22    23   ar
    25    23    24   ar
    26    24    25   ar
    27    25    26    1
    28    25    27   ar
    29    27    28   ar
    30    16    17   ar
    31     9    10    1
    32    10    11    2
    33    11    12    1
    34    34    35    1
    35    35    36    1
    36    36    31    1
    37     6     1   ar
    38    12     8    1
    39    12     4    1
    40    17    13   ar
    41    28    22   ar
@<TRIPOS>MOLECULE
*****
 36 41 0 0 0
SMALL
GASTEIGER

@<TRIPOS>ATOM
      1 C         142.4073  136.7659  155.9311 C.ar    1  UNL1       -0.0065
      2 C         143.4067  137.3233  154.9613 C.ar    1  UNL1       -0.0032
      3 C         144.1374  138.5928  155.2842 C.ar    1  UNL1       -0.0026
      4 C         143.8687  139.3049  156.5767 C.ar    1  UNL1        0.0019
      5 C         142.8693  138.7475  157.5465 C.ar    1  UNL1       -0.0200
      6 C         142.1386  137.4780  157.2237 C.ar    1  UNL1       -0.0071
      7 C         142.8143  139.6634  158.7331 C.3     1  UNL1        0.0519
      8 C         143.7796  140.7869  158.4967 C.2     1  UNL1        0.0074
      9 C         144.3422  142.0473  159.0841 C.2     1  UNL1        0.0976
     10 N         145.3416  142.6047  158.1143 N.2     1  UNL1       -0.1526
     11 N         145.3966  141.6888  156.9277 N.2     1  UNL1       -0.1678
     12 C         144.4313  140.5654  157.1640 C.3     1  UNL1        0.1672
     13 C         143.9706  142.6452  160.4086 C.ar    1  UNL1        0.0265
     14 C         144.9262  143.0604  161.4878 C.ar    1  UNL1        0.0376
     15 S         144.1243  143.6048  162.6326 S.2     1  UNL1       -0.0780
     16 C         142.6732  143.5260  162.2610 C.ar    1  UNL1        0.0711
     17 C         142.5782  142.9330  160.8865 C.ar    1  UNL1        0.0168
     18 C         141.5196  143.9634  163.1142 C.1     1  UNL1       -0.0543
     19 C         140.3660  144.4009  163.9674 C.1     1  UNL1       -0.0388
     20 C         139.2124  144.8384  164.8205 C.3     1  UNL1        0.2814
     21 O         138.0155  143.9480  164.9772 O.3     1  UNL1       -0.4612
     22 C         137.9861  142.6061  164.3074 C.ar    1  UNL1        0.1401
     23 C         137.5403  142.4900  162.8799 C.ar    1  UNL1        0.0378
     24 C         137.5109  141.1482  162.2101 C.ar    1  UNL1        0.0145
     25 C         137.9272  139.9225  162.9679 C.ar    1  UNL1        0.0579
     26 CL        137.8978  138.5806  162.2981 Cl      1  UNL1       -0.0822
     27 C         138.3730  140.0386  164.3954 C.ar    1  UNL1        0.0145
     28 C         138.4024  141.3804  165.0652 C.ar    1  UNL1        0.0378
     29 C         141.6765  135.4963  155.6083 C.3     1  UNL1        0.0992
     30 C         143.9360  130.2125  157.3335 C.3     1  UNL1        0.0897
     31 N         143.3711  131.5335  156.9022 N.3     1  UNL1       -0.2691
     32 C         142.2152  131.5790  155.9474 C.3     1  UNL1        0.0897
     33 C         141.6503  132.9000  155.5161 C.3     1  UNL1        0.0899
     34 N         142.2413  134.1753  156.0396 N.3     1  UNL1       -0.2665
     35 C         143.3973  134.1297  156.9944 C.3     1  UNL1        0.0899
     36 C         143.9622  132.8088  157.4257 C.3     1  UNL1        0.0897
@<TRIPOS>BOND
     1    30    31    1
     2    31    32    1
     3    32    33    1
     4    33    34    1
     5    34    29    1
     6    29     1    1
     7     1     2   ar
     8     2     3   ar
     9     3     4   ar
    10     4     5   ar
    11     5     6   ar
    12     5     7    1
    13     7     8    1
    14     8     9    2
    15     9    13    1
    16    13    14   ar
    17    14    15   ar
    18    15    16   ar
    19    16    18    1
    20    18    19    3
    21    19    20    1
    22    20    21    1
    23    21    22    1
    24    22    23   ar
    25    23    24   ar
    26    24    25   ar
    27    25    26    1
    28    25    27   ar
    29    27    28   ar
    30    16    17   ar
    31     9    10    1
    32    10    11    2
    33    11    12    1
    34    34    35    1
    35    35    36    1
    36    36    31    1
    37     6     1   ar
    38    12     8    1
    39    12     4    1
    40    17    13   ar
    41    28    22   ar
@<TRIPOS>MOLECULE
*****
 36 41 0 0 0
SMALL
GASTEIGER

@<TRIPOS>ATOM
      1 C         142.5469  136.5422  155.8793 C.ar    1  UNL1       -0.0065
      2 C         141.5959  136.9235  154.7838 C.ar    1  UNL1       -0.0032
      3 C         140.4181  137.8019  155.0852 C.ar    1  UNL1       -0.0026
      4 C         140.1912  138.2991  156.4821 C.ar    1  UNL1        0.0019
      5 C         141.1422  137.9178  157.5776 C.ar    1  UNL1       -0.0200
      6 C         142.3201  137.0394  157.2762 C.ar    1  UNL1       -0.0071
      7 C         140.6647  138.5554  158.8487 C.3     1  UNL1        0.0519
      8 C         139.4186  139.3307  158.5387 C.2     1  UNL1        0.0074
      9 C         138.3534  140.2039  159.1327 C.2     1  UNL1        0.0976
     10 N         137.4024  140.5852  158.0372 N.2     1  UNL1       -0.1526
     11 N         137.8799  139.9477  156.7662 N.2     1  UNL1       -0.1678
     12 C         139.1259  139.1724  157.0761 C.3     1  UNL1        0.1672
     13 C         138.2563  140.6224  160.5699 C.ar    1  UNL1        0.0265
     14 C         138.1256  142.0300  161.0715 C.ar    1  UNL1        0.0376
     15 S         138.0614  141.9842  162.5694 S.2     1  UNL1       -0.0780
     16 C         138.1522  140.5483  162.9936 C.ar    1  UNL1        0.0711
     17 C         138.2727  139.7067  161.7578 C.ar    1  UNL1        0.0168
     18 C         138.1271  140.0428  164.4056 C.1     1  UNL1       -0.0543
     19 C         138.1019  139.5372  165.8176 C.1     1  UNL1       -0.0388
     20 C         138.0767  139.0317  167.2296 C.3     1  UNL1        0.2814
     21 O         139.1839  139.3923  168.1752 O.3     1  UNL1       -0.4612
     22 C         140.3280  140.2395  167.7023 C.ar    1  UNL1        0.1401
     23 C         141.5493  139.5927  167.1193 C.ar    1  UNL1        0.0378
     24 C         142.6933  140.4398  166.6464 C.ar    1  UNL1        0.0145
     25 C         142.6159  141.9337  166.7565 C.ar    1  UNL1        0.0579
     26 CL        143.7600  142.7809  166.2836 Cl      1  UNL1       -0.0822
     27 C         141.3946  142.5805  167.3395 C.ar    1  UNL1        0.0145
     28 C         140.2506  141.7334  167.8124 C.ar    1  UNL1        0.0378
     29 C         143.7248  135.6636  155.5780 C.3     1  UNL1        0.0992
     30 C         143.4813  129.7949  156.8017 C.3     1  UNL1        0.0897
     31 N         143.5422  131.2620  156.4958 N.3     1  UNL1       -0.2691
     32 C         143.1310  131.7638  155.1434 C.3     1  UNL1        0.0897
     33 C         143.1919  133.2311  154.8374 C.3     1  UNL1        0.0899
     34 N         143.6640  134.1965  155.8839 N.3     1  UNL1       -0.2665
     35 C         144.0752  133.6946  157.2364 C.3     1  UNL1        0.0899
     36 C         144.0143  132.2275  157.5423 C.3     1  UNL1        0.0897
@<TRIPOS>BOND
     1    30    31    1
     2    31    32    1
     3    32    33    1
     4    33    34    1
     5    34    29    1
     6    29     1    1
     7     1     2   ar
     8     2     3   ar
     9     3     4   ar
    10     4     5   ar
    11     5     6   ar
    12     5     7    1
    13     7     8    1
    14     8     9    2
    15     9    13    1
    16    13    14   ar
    17    14    15   ar
    18    15    16   ar
    19    16    18    1
    20    18    19    3
    21    19    20    1
    22    20    21    1
    23    21    22    1
    24    22    23   ar
    25    23    24   ar
    26    24    25   ar
    27    25    26    1
    28    25    27   ar
    29    27    28   ar
    30    16    17   ar
    31     9    10    1
    32    10    11    2
    33    11    12    1
    34    34    35    1
    35    35    36    1
    36    36    31    1
    37     6     1   ar
    38    12     8    1
    39    12     4    1
    40    17    13   ar
    41    28    22   ar
@<TRIPOS>MOLECULE
*****
 36 41 0 0 0
SMALL
GASTEIGER

@<TRIPOS>ATOM
      1 C         139.8640  146.9274  155.7183 C.ar    1  UNL1       -0.0065
      2 C         141.1006  146.3187  155.1265 C.ar    1  UNL1       -0.0032
      3 C         141.9789  145.4389  155.9659 C.ar    1  UNL1       -0.0026
      4 C         141.6206  145.1679  157.3970 C.ar    1  UNL1        0.0019
      5 C         140.3840  145.7766  157.9888 C.ar    1  UNL1       -0.0200
      6 C         139.5057  146.6564  157.1495 C.ar    1  UNL1       -0.0071
      7 C         140.2875  145.3328  159.4184 C.3     1  UNL1        0.0519
      8 C         141.4644  144.4498  159.7101 C.2     1  UNL1        0.0074
      9 C         142.1321  143.6298  160.7740 C.2     1  UNL1        0.0976
     10 N         143.3687  143.0211  160.1822 N.2     1  UNL1       -0.1526
     11 N         143.4652  143.4649  158.7526 N.2     1  UNL1       -0.1678
     12 C         142.2884  144.3478  158.4609 C.3     1  UNL1        0.1672
     13 C         141.6481  143.4501  162.1824 C.ar    1  UNL1        0.0265
     14 C         141.6922  144.4838  163.2685 C.ar    1  UNL1        0.0376
     15 S         141.1065  143.8777  164.5092 S.2     1  UNL1       -0.0780
     16 C         140.7004  142.4694  164.1900 C.ar    1  UNL1        0.0711
     17 C         141.0352  142.2051  162.7519 C.ar    1  UNL1        0.0168
     18 C         140.0702  141.4963  165.1417 C.1     1  UNL1       -0.0543
     19 C         139.4400  140.5231  166.0935 C.1     1  UNL1       -0.0388
     20 C         138.8098  139.5499  167.0452 C.3     1  UNL1        0.2814
     21 O         139.1951  139.5621  168.4949 O.3     1  UNL1       -0.4612
     22 C         140.3552  140.3940  168.9556 C.ar    1  UNL1        0.1401
     23 C         141.7423  139.8236  168.9346 C.ar    1  UNL1        0.0378
     24 C         142.9024  140.6554  169.3953 C.ar    1  UNL1        0.0145
     25 C         142.6753  142.0576  169.8771 C.ar    1  UNL1        0.0579
     26 CL        143.8354  142.8895  170.3378 Cl      1  UNL1       -0.0822
     27 C         141.2881  142.6280  169.8981 C.ar    1  UNL1        0.0145
     28 C         140.1281  141.7962  169.4374 C.ar    1  UNL1        0.0378
     29 C         138.9856  147.8072  154.8790 C.3     1  UNL1        0.0992
     30 C         140.6885  153.4210  153.6198 C.3     1  UNL1        0.0897
     31 N         140.2628  152.0176  153.9346 N.3     1  UNL1       -0.2691
     32 C         139.3055  151.7588  155.0600 C.3     1  UNL1        0.0897
     33 C         138.8797  150.3553  155.3748 C.3     1  UNL1        0.0899
     34 N         139.4113  149.2106  154.5642 N.3     1  UNL1       -0.2665
     35 C         140.3686  149.4695  153.4387 C.3     1  UNL1        0.0899
     36 C         140.7943  150.8729  153.1240 C.3     1  UNL1        0.0897
@<TRIPOS>BOND
     1    30    31    1
     2    31    32    1
     3    32    33    1
     4    33    34    1
     5    34    29    1
     6    29     1    1
     7     1     2   ar
     8     2     3   ar
     9     3     4   ar
    10     4     5   ar
    11     5     6   ar
    12     5     7    1
    13     7     8    1
    14     8     9    2
    15     9    13    1
    16    13    14   ar
    17    14    15   ar
    18    15    16   ar
    19    16    18    1
    20    18    19    3
    21    19    20    1
    22    20    21    1
    23    21    22    1
    24    22    23   ar
    25    23    24   ar
    26    24    25   ar
    27    25    26    1
    28    25    27   ar
    29    27    28   ar
    30    16    17   ar
    31     9    10    1
    32    10    11    2
    33    11    12    1
    34    34    35    1
    35    35    36    1
    36    36    31    1
    37     6     1   ar
    38    12     8    1
    39    12     4    1
    40    17    13   ar
    41    28    22   ar
@<TRIPOS>MOLECULE
*****
 36 41 0 0 0
SMALL
GASTEIGER

@<TRIPOS>ATOM
      1 C         143.6320  139.0535  164.9665 C.ar    1  UNL1       -0.0065
      2 C         144.3551  140.3110  164.5846 C.ar    1  UNL1       -0.0032
      3 C         144.4408  140.7187  163.1437 C.ar    1  UNL1       -0.0026
      4 C         143.8033  139.8690  162.0846 C.ar    1  UNL1        0.0019
      5 C         143.0801  138.6115  162.4665 C.ar    1  UNL1       -0.0200
      6 C         142.9945  138.2038  163.9075 C.ar    1  UNL1       -0.0071
      7 C         142.5537  137.9803  161.2118 C.3     1  UNL1        0.0519
      8 C         142.9514  138.8476  160.0544 C.2     1  UNL1        0.0074
      9 C         142.8719  138.9935  158.5636 C.2     1  UNL1        0.0976
     10 N         143.5950  140.2509  158.1817 N.2     1  UNL1       -0.1526
     11 N         144.1215  140.8821  159.4364 N.2     1  UNL1       -0.1678
     12 C         143.7238  140.0149  160.5938 C.3     1  UNL1        0.1672
     13 C         142.1891  138.0479  157.6204 C.ar    1  UNL1        0.0265
     14 C         140.7498  138.1062  157.2017 C.ar    1  UNL1        0.0376
     15 S         140.4969  136.9724  156.2528 S.2     1  UNL1       -0.0780
     16 C         141.7798  136.2134  156.0850 C.ar    1  UNL1        0.0711
     17 C         142.8256  136.8781  156.9302 C.ar    1  UNL1        0.0168
     18 C         141.9814  135.0023  155.2233 C.1     1  UNL1       -0.0543
     19 C         142.1831  133.7911  154.3616 C.1     1  UNL1       -0.0388
     20 C         142.3847  132.5800  153.4999 C.3     1  UNL1        0.2814
     21 O         143.5241  131.6443  153.7761 O.3     1  UNL1       -0.4612
     22 C         143.6658  131.0142  155.1300 C.ar    1  UNL1        0.1401
     23 C         144.5666  131.6356  156.1558 C.ar    1  UNL1        0.0378
     24 C         144.7084  131.0056  157.5096 C.ar    1  UNL1        0.0145
     25 C         143.9493  129.7542  157.8376 C.ar    1  UNL1        0.0579
     26 CL        144.0911  129.1240  159.1915 Cl      1  UNL1       -0.0822
     27 C         143.0485  129.1327  156.8118 C.ar    1  UNL1        0.0145
     28 C         142.9068  129.7628  155.4579 C.ar    1  UNL1        0.0378
     29 C         143.5463  138.6458  166.4075 C.3     1  UNL1        0.0992
     30 C         139.1399  140.7837  169.8734 C.3     1  UNL1        0.0897
     31 N         140.2414  140.2492  169.0069 N.3     1  UNL1       -0.2691
     32 C         141.5302  139.7964  169.6265 C.3     1  UNL1        0.0897
     33 C         142.6319  139.2619  168.7600 C.3     1  UNL1        0.0899
     34 N         142.4447  139.1802  167.2740 N.3     1  UNL1       -0.2665
     35 C         141.1558  139.6331  166.6544 C.3     1  UNL1        0.0899
     36 C         140.0542  140.1676  167.5209 C.3     1  UNL1        0.0897
@<TRIPOS>BOND
     1    30    31    1
     2    31    32    1
     3    32    33    1
     4    33    34    1
     5    34    29    1
     6    29     1    1
     7     1     2   ar
     8     2     3   ar
     9     3     4   ar
    10     4     5   ar
    11     5     6   ar
    12     5     7    1
    13     7     8    1
    14     8     9    2
    15     9    13    1
    16    13    14   ar
    17    14    15   ar
    18    15    16   ar
    19    16    18    1
    20    18    19    3
    21    19    20    1
    22    20    21    1
    23    21    22    1
    24    22    23   ar
    25    23    24   ar
    26    24    25   ar
    27    25    26    1
    28    25    27   ar
    29    27    28   ar
    30    16    17   ar
    31     9    10    1
    32    10    11    2
    33    11    12    1
    34    34    35    1
    35    35    36    1
    36    36    31    1
    37     6     1   ar
    38    12     8    1
    39    12     4    1
    40    17    13   ar
    41    28    22   ar
@<TRIPOS>MOLECULE
*****
 36 41 0 0 0
SMALL
GASTEIGER

@<TRIPOS>ATOM
      1 C         136.0058  141.7487  155.4374 C.ar    1  UNL1       -0.0065
      2 C         136.6387  143.0083  154.9247 C.ar    1  UNL1       -0.0032
      3 C         137.7283  143.6742  155.7116 C.ar    1  UNL1       -0.0026
      4 C         138.1852  143.0805  157.0111 C.ar    1  UNL1        0.0019
      5 C         137.5523  141.8209  157.5238 C.ar    1  UNL1       -0.0200
      6 C         136.4626  141.1550  156.7370 C.ar    1  UNL1       -0.0071
      7 C         138.2059  141.4714  158.8279 C.3     1  UNL1        0.0519
      8 C         139.2428  142.5149  159.1211 C.2     1  UNL1        0.0074
      9 C         140.2875  142.9438  160.1083 C.2     1  UNL1        0.0976
     10 N         140.9204  144.2034  159.5956 N.2     1  UNL1       -0.1526
     11 N         140.2668  144.5529  158.2915 N.2     1  UNL1       -0.1678
     12 C         139.2300  143.5094  157.9983 C.3     1  UNL1        0.1672
     13 C         140.6379  142.2371  161.3842 C.ar    1  UNL1        0.0265
     14 C         142.0223  141.9052  161.8568 C.ar    1  UNL1        0.0376
     15 S         141.9054  141.2013  163.1762 S.2     1  UNL1       -0.0780
     16 C         140.4487  141.0982  163.5190 C.ar    1  UNL1        0.0711
     17 C         139.6654  141.7383  162.4116 C.ar    1  UNL1        0.0168
     18 C         139.8759  140.4659  164.7528 C.1     1  UNL1       -0.0543
     19 C         139.3031  139.8336  165.9865 C.1     1  UNL1       -0.0388
     20 C         138.7303  139.2013  167.2202 C.3     1  UNL1        0.2814
     21 O         138.9321  139.8493  168.5579 O.3     1  UNL1       -0.4612
     22 C         140.2408  140.5063  168.8832 C.ar    1  UNL1        0.1401
     23 C         140.3628  142.0005  168.8328 C.ar    1  UNL1        0.0378
     24 C         141.6713  142.6576  169.1580 C.ar    1  UNL1        0.0145
     25 C         142.8579  141.8205  169.5337 C.ar    1  UNL1        0.0579
     26 CL        144.1666  142.4776  169.8590 Cl      1  UNL1       -0.0822
     27 C         142.7360  140.3264  169.5841 C.ar    1  UNL1        0.0145
     28 C         141.4274  139.6693  169.2589 C.ar    1  UNL1        0.0378
     29 C         134.9161  141.0828  154.6506 C.3     1  UNL1        0.0992
     30 C         130.0861  138.9034  157.4651 C.3     1  UNL1        0.0897
     31 N         131.2936  139.4483  156.7615 N.3     1  UNL1       -0.2691
     32 C         131.2291  140.7876  156.0892 C.3     1  UNL1        0.0897
     33 C         132.4367  141.3325  155.3856 C.3     1  UNL1        0.0899
     34 N         133.7086  140.5380  155.3542 N.3     1  UNL1       -0.2665
     35 C         133.7730  139.1985  156.0265 C.3     1  UNL1        0.0899
     36 C         132.5655  138.6537  156.7301 C.3     1  UNL1        0.0897
@<TRIPOS>BOND
     1    30    31    1
     2    31    32    1
     3    32    33    1
     4    33    34    1
     5    34    29    1
     6    29     1    1
     7     1     2   ar
     8     2     3   ar
     9     3     4   ar
    10     4     5   ar
    11     5     6   ar
    12     5     7    1
    13     7     8    1
    14     8     9    2
    15     9    13    1
    16    13    14   ar
    17    14    15   ar
    18    15    16   ar
    19    16    18    1
    20    18    19    3
    21    19    20    1
    22    20    21    1
    23    21    22    1
    24    22    23   ar
    25    23    24   ar
    26    24    25   ar
    27    25    26    1
    28    25    27   ar
    29    27    28   ar
    30    16    17   ar
    31     9    10    1
    32    10    11    2
    33    11    12    1
    34    34    35    1
    35    35    36    1
    36    36    31    1
    37     6     1   ar
    38    12     8    1
    39    12     4    1
    40    17    13   ar
    41    28    22   ar
@<TRIPOS>MOLECULE
*****
 36 41 0 0 0
SMALL
GASTEIGER

@<TRIPOS>ATOM
      1 C         136.1768  141.8157  154.7538 C.ar    1  UNL1       -0.0065
      2 C         136.5332  142.9698  153.8645 C.ar    1  UNL1       -0.0032
      3 C         137.5247  143.9955  154.3280 C.ar    1  UNL1       -0.0026
      4 C         138.1598  143.8671  155.6808 C.ar    1  UNL1        0.0019
      5 C         137.8034  142.7130  156.5702 C.ar    1  UNL1       -0.0200
      6 C         136.8118  141.6873  156.1067 C.ar    1  UNL1       -0.0071
      7 C         138.5864  142.8491  157.8423 C.3     1  UNL1        0.0519
      8 C         139.4268  144.0873  157.7392 C.2     1  UNL1        0.0074
      9 C         140.4301  144.9366  158.4617 C.2     1  UNL1        0.0976
     10 N         140.7865  146.0907  157.5723 N.2     1  UNL1       -0.1526
     11 N         140.0035  145.9546  156.3002 N.2     1  UNL1       -0.1678
     12 C         139.1631  144.7165  156.4033 C.3     1  UNL1        0.1672
     13 C         140.9803  144.6774  159.8328 C.ar    1  UNL1        0.0265
     14 C         140.4250  145.2092  161.1208 C.ar    1  UNL1        0.0376
     15 S         141.2839  144.7013  162.2407 S.2     1  UNL1       -0.0780
     16 C         142.3701  143.8556  161.6449 C.ar    1  UNL1        0.0711
     17 C         142.1825  143.8408  160.1567 C.ar    1  UNL1        0.0168
     18 C         143.4537  143.1487  162.4039 C.1     1  UNL1       -0.0543
     19 C         144.5374  142.4419  163.1630 C.1     1  UNL1       -0.0388
     20 C         145.6209  141.7350  163.9220 C.3     1  UNL1        0.2814
     21 O         145.6050  140.2393  164.0342 O.3     1  UNL1       -0.4612
     22 C         144.3197  139.4873  163.8531 C.ar    1  UNL1        0.1401
     23 C         143.9526  138.9436  162.5041 C.ar    1  UNL1        0.0378
     24 C         142.6674  138.1917  162.3230 C.ar    1  UNL1        0.0145
     25 C         141.7494  137.9834  163.4908 C.ar    1  UNL1        0.0579
     26 CL        140.4641  137.2314  163.3096 Cl      1  UNL1       -0.0822
     27 C         142.1165  138.5271  164.8397 C.ar    1  UNL1        0.0145
     28 C         143.4016  139.2791  165.0208 C.ar    1  UNL1        0.0378
     29 C         135.1852  140.7900  154.2904 C.3     1  UNL1        0.0992
     30 C         130.4355  139.4519  157.7036 C.3     1  UNL1        0.0897
     31 N         131.6229  139.7864  156.8503 N.3     1  UNL1       -0.2691
     32 C         131.6259  141.0408  156.0278 C.3     1  UNL1        0.0897
     33 C         132.8134  141.3754  155.1745 C.3     1  UNL1        0.0899
     34 N         133.9978  140.4555  155.1437 N.3     1  UNL1       -0.2665
     35 C         133.9948  139.2010  155.9662 C.3     1  UNL1        0.0899
     36 C         132.8074  138.8665  156.8194 C.3     1  UNL1        0.0897
@<TRIPOS>BOND
     1    30    31    1
     2    31    32    1
     3    32    33    1
     4    33    34    1
     5    34    29    1
     6    29     1    1
     7     1     2   ar
     8     2     3   ar
     9     3     4   ar
    10     4     5   ar
    11     5     6   ar
    12     5     7    1
    13     7     8    1
    14     8     9    2
    15     9    13    1
    16    13    14   ar
    17    14    15   ar
    18    15    16   ar
    19    16    18    1
    20    18    19    3
    21    19    20    1
    22    20    21    1
    23    21    22    1
    24    22    23   ar
    25    23    24   ar
    26    24    25   ar
    27    25    26    1
    28    25    27   ar
    29    27    28   ar
    30    16    17   ar
    31     9    10    1
    32    10    11    2
    33    11    12    1
    34    34    35    1
    35    35    36    1
    36    36    31    1
    37     6     1   ar
    38    12     8    1
    39    12     4    1
    40    17    13   ar
    41    28    22   ar
@<TRIPOS>MOLECULE
*****
 36 41 0 0 0
SMALL
GASTEIGER

@<TRIPOS>ATOM
      1 C         138.3000  140.1016  164.8396 C.ar    1  UNL1       -0.0065
      2 C         138.0858  141.5804  164.7084 C.ar    1  UNL1       -0.0032
      3 C         138.0936  142.2220  163.3526 C.ar    1  UNL1       -0.0026
      4 C         138.3156  141.3848  162.1280 C.ar    1  UNL1        0.0019
      5 C         138.5298  139.9060  162.2591 C.ar    1  UNL1       -0.0200
      6 C         138.5220  139.2644  163.6149 C.ar    1  UNL1       -0.0071
      7 C         138.7222  139.3417  160.8827 C.3     1  UNL1        0.0519
      8 C         138.6269  140.4717  159.9009 C.2     1  UNL1        0.0074
      9 C         138.6869  140.8212  158.4434 C.2     1  UNL1        0.0976
     10 N         138.4727  142.3000  158.3123 N.2     1  UNL1       -0.1526
     11 N         138.2803  142.8644  159.6887 N.2     1  UNL1       -0.1678
     12 C         138.3756  141.7344  160.6704 C.3     1  UNL1        0.1672
     13 C         138.9201  139.8606  157.3152 C.ar    1  UNL1        0.0265
     14 C         138.4023  140.0031  155.9146 C.ar    1  UNL1        0.0376
     15 S         138.8743  138.8194  155.1233 S.2     1  UNL1       -0.0780
     16 C         139.6838  137.9455  156.0348 C.ar    1  UNL1        0.0711
     17 C         139.7122  138.5890  157.3894 C.ar    1  UNL1        0.0168
     18 C         140.3484  136.6546  155.6579 C.1     1  UNL1       -0.0543
     19 C         141.0129  135.3637  155.2809 C.1     1  UNL1       -0.0388
     20 C         141.6774  134.0729  154.9039 C.3     1  UNL1        0.2814
     21 O         143.1398  133.8756  155.1733 O.3     1  UNL1       -0.4612
     22 C         143.5943  132.7558  156.0620 C.ar    1  UNL1        0.1401
     23 C         144.7587  132.9571  156.9859 C.ar    1  UNL1        0.0378
     24 C         145.2132  131.8374  157.8746 C.ar    1  UNL1        0.0145
     25 C         144.5033  130.5166  157.8394 C.ar    1  UNL1        0.0579
     26 CL        144.9577  129.3969  158.7282 Cl      1  UNL1       -0.0822
     27 C         143.3388  130.3154  156.9156 C.ar    1  UNL1        0.0145
     28 C         142.8843  131.4350  156.0269 C.ar    1  UNL1        0.0378
     29 C         138.2922  139.4600  166.1954 C.3     1  UNL1        0.0992
     30 C         142.8681  140.3650  169.9692 C.3     1  UNL1        0.0897
     31 N         141.7241  140.1387  169.0258 N.3     1  UNL1       -0.2691
     32 C         141.9923  139.7757  167.5953 C.3     1  UNL1        0.0897
     33 C         140.8483  139.5494  166.6518 C.3     1  UNL1        0.0899
     34 N         139.4361  139.6862  167.1388 N.3     1  UNL1       -0.2665
     35 C         139.1680  140.0493  168.5694 C.3     1  UNL1        0.0899
     36 C         140.3120  140.2755  169.5128 C.3     1  UNL1        0.0897
@<TRIPOS>BOND
     1    30    31    1
     2    31    32    1
     3    32    33    1
     4    33    34    1
     5    34    29    1
     6    29     1    1
     7     1     2   ar
     8     2     3   ar
     9     3     4   ar
    10     4     5   ar
    11     5     6   ar
    12     5     7    1
    13     7     8    1
    14     8     9    2
    15     9    13    1
    16    13    14   ar
    17    14    15   ar
    18    15    16   ar
    19    16    18    1
    20    18    19    3
    21    19    20    1
    22    20    21    1
    23    21    22    1
    24    22    23   ar
    25    23    24   ar
    26    24    25   ar
    27    25    26    1
    28    25    27   ar
    29    27    28   ar
    30    16    17   ar
    31     9    10    1
    32    10    11    2
    33    11    12    1
    34    34    35    1
    35    35    36    1
    36    36    31    1
    37     6     1   ar
    38    12     8    1
    39    12     4    1
    40    17    13   ar
    41    28    22   ar
@<TRIPOS>MOLECULE
*****
 36 41 0 0 0
SMALL
GASTEIGER

@<TRIPOS>ATOM
      1 C         135.9482  141.1120  155.4492 C.ar    1  UNL1       -0.0065
      2 C         136.2329  142.2995  154.5781 C.ar    1  UNL1       -0.0032
      3 C         137.2246  143.3340  155.0211 C.ar    1  UNL1       -0.0026
      4 C         137.9317  143.1810  156.3351 C.ar    1  UNL1        0.0019
      5 C         137.6470  141.9935  157.2062 C.ar    1  UNL1       -0.0200
      6 C         136.6552  140.9591  156.7632 C.ar    1  UNL1       -0.0071
      7 C         138.4918  142.1107  158.4401 C.3     1  UNL1        0.0519
      8 C         139.2986  143.3706  158.3316 C.2     1  UNL1        0.0074
      9 C         140.3194  144.2216  159.0272 C.2     1  UNL1        0.0976
     10 N         140.6041  145.4090  158.1561 N.2     1  UNL1       -0.1526
     11 N         139.7593  145.2919  156.9222 N.2     1  UNL1       -0.1678
     12 C         138.9525  144.0321  157.0307 C.3     1  UNL1        0.1672
     13 C         140.9455  143.9353  160.3599 C.ar    1  UNL1        0.0265
     14 C         142.4114  143.7611  160.6262 C.ar    1  UNL1        0.0376
     15 S         142.5875  143.4912  162.0911 S.2     1  UNL1       -0.0780
     16 C         141.2305  143.4986  162.7303 C.ar    1  UNL1        0.0711
     17 C         140.2157  143.7731  161.6603 C.ar    1  UNL1        0.0168
     18 C         140.9393  143.2714  164.1841 C.1     1  UNL1       -0.0543
     19 C         140.6482  143.0442  165.6379 C.1     1  UNL1       -0.0388
     20 C         140.3571  142.8170  167.0917 C.3     1  UNL1        0.2814
     21 O         140.2161  141.4198  167.6190 O.3     1  UNL1       -0.4612
     22 C         140.4397  140.2486  166.7088 C.ar    1  UNL1        0.1401
     23 C         139.2749  139.5996  166.0217 C.ar    1  UNL1        0.0378
     24 C         139.4984  138.4285  165.1116 C.ar    1  UNL1        0.0145
     25 C         140.8867  137.9063  164.8885 C.ar    1  UNL1        0.0579
     26 CL        141.1102  136.7351  163.9783 Cl      1  UNL1       -0.0822
     27 C         142.0515  138.5552  165.5756 C.ar    1  UNL1        0.0145
     28 C         141.8280  139.7263  166.4857 C.ar    1  UNL1        0.0378
     29 C         134.9565  140.0774  155.0062 C.3     1  UNL1        0.0992
     30 C         129.6476  139.6350  157.7667 C.3     1  UNL1        0.0897
     31 N         130.9748  139.7456  157.0766 N.3     1  UNL1       -0.2691
     32 C         131.2430  140.8909  156.1460 C.3     1  UNL1        0.0897
     33 C         132.5703  141.0016  155.4558 C.3     1  UNL1        0.0899
     34 N         133.6293  139.9668  155.6963 N.3     1  UNL1       -0.2665
     35 C         133.3610  138.8214  156.6270 C.3     1  UNL1        0.0899
     36 C         132.0338  138.7108  157.3171 C.3     1  UNL1        0.0897
@<TRIPOS>BOND
     1    30    31    1
     2    31    32    1
     3    32    33    1
     4    33    34    1
     5    34    29    1
     6    29     1    1
     7     1     2   ar
     8     2     3   ar
     9     3     4   ar
    10     4     5   ar
    11     5     6   ar
    12     5     7    1
    13     7     8    1
    14     8     9    2
    15     9    13    1
    16    13    14   ar
    17    14    15   ar
    18    15    16   ar
    19    16    18    1
    20    18    19    3
    21    19    20    1
    22    20    21    1
    23    21    22    1
    24    22    23   ar
    25    23    24   ar
    26    24    25   ar
    27    25    26    1
    28    25    27   ar
    29    27    28   ar
    30    16    17   ar
    31     9    10    1
    32    10    11    2
    33    11    12    1
    34    34    35    1
    35    35    36    1
    36    36    31    1
    37     6     1   ar
    38    12     8    1
    39    12     4    1
    40    17    13   ar
    41    28    22   ar
