@<TRIPOS>MOLECULE
*****
 37 40 0 0 0
SMALL
GASTEIGER

@<TRIPOS>ATOM
      1 C         138.1682  141.4673  161.6355 C.ar    1  UNL1        0.1417
      2 C         138.3774  140.5379  162.7941 C.ar    1  UNL1        0.0744
      3 C         139.0099  139.1957  162.5742 C.ar    1  UNL1        0.1504
      4 C         139.4330  138.7828  161.1956 C.ar    1  UNL1        0.0423
      5 C         139.2237  139.7122  160.0370 C.ar    1  UNL1        0.0597
      6 C         138.5913  141.0544  160.2570 C.ar    1  UNL1        0.0416
      7 C         139.6469  139.2993  158.6584 C.2     1  UNL1        0.2508
      8 O         140.3422  140.2806  157.7619 O.2     1  UNL1       -0.2698
      9 N         139.3748  137.9052  158.1763 N.am    1  UNL1       -0.2646
     10 H         138.9185  137.2612  158.7647 H       1  UNL1        0.1566
     11 C         139.7980  137.4924  156.7977 C.ar    1  UNL1        0.1538
     12 C         141.2239  137.1086  156.5342 C.ar    1  UNL1        0.1328
     13 N         141.6470  136.6958  155.1557 N.ar    1  UNL1       -0.2436
     14 C         140.6441  136.6667  154.0405 C.ar    1  UNL1        0.0786
     15 C         141.0673  136.2539  152.6619 C.3     1  UNL1        0.0538
     16 C         139.2182  137.0505  154.3040 C.ar    1  UNL1        0.1150
     17 N         138.7952  137.4633  155.6825 N.ar    1  UNL1       -0.2262
     18 O         137.5357  142.8096  161.8555 O.3     1  UNL1       -0.4765
     19 C         138.2165  143.8263  162.7229 C.3     1  UNL1        0.1954
     20 C         137.7822  144.0086  164.1471 C.3     1  UNL1        0.0500
     21 C         139.3318  144.6609  162.1663 C.3     1  UNL1        0.1855
     22 C         140.7530  145.2969  160.0865 C.3     1  UNL1        0.1743
     23 O         139.4461  144.8684  160.6852 O.3     1  UNL1       -0.3473
     24 O         139.2192  138.2663  163.7329 O.3     1  UNL1       -0.4352
     25 C         139.2645  138.8086  165.1307 C.ar    1  UNL1        0.2403
     26 N         138.0727  138.6646  166.0301 N.ar    1  UNL1       -0.2090
     27 C         138.1181  139.2070  167.4279 C.ar    1  UNL1        0.1066
     28 C         139.3553  139.8934  167.9262 C.ar    1  UNL1        0.0738
     29 C         140.5470  140.0374  167.0268 C.ar    1  UNL1        0.0222
     30 C         140.5016  139.4950  165.6290 C.ar    1  UNL1        0.1112
     31 CL        141.6934  139.6391  164.7296 Cl      1  UNL1       -0.0774
     32 C         139.4006  140.4358  169.3240 C.2     1  UNL1        0.2506
     33 O         138.9329  139.5910  170.4718 O.2     1  UNL1       -0.2699
     34 N         139.9138  141.8230  169.5739 N.am    1  UNL1       -0.2759
     35 C         140.4490  142.9274  168.7114 C.3     1  UNL1        0.0955
     36 C         140.6394  143.7848  169.9274 C.3     1  UNL1        0.0430
     37 C         140.1041  142.6804  170.7899 C.3     1  UNL1        0.0955
@<TRIPOS>BOND
     1    22    23    1
     2    23    21    1
     3    21    19    1
     4    19    20    1
     5    19    18    1
     6    18     1    1
     7     1     2   ar
     8     2     3   ar
     9     3    24    1
    10    24    25    1
    11    25    26   ar
    12    26    27   ar
    13    27    28   ar
    14    28    32    1
    15    32    33    2
    16    32    34   am
    17    34    35    1
    18    35    36    1
    19    36    37    1
    20    28    29   ar
    21    29    30   ar
    22    30    31    1
    23     3     4   ar
    24     4     5   ar
    25     5     7    1
    26     7     8    2
    27     7     9   am
    28     9    11    1
    29    11    12   ar
    30    12    13   ar
    31    13    14   ar
    32    14    15    1
    33    14    16   ar
    34    16    17   ar
    35     5     6   ar
    36     6     1   ar
    37    30    25   ar
    38    17    11   ar
    39    37    34    1
    40     9    10    1
@<TRIPOS>MOLECULE
*****
 37 40 0 0 0
SMALL
GASTEIGER

@<TRIPOS>ATOM
      1 C         144.1674  141.3187  162.2929 C.ar    1  UNL1        0.1417
      2 C         143.7789  140.3921  163.4066 C.ar    1  UNL1        0.0744
      3 C         143.0855  139.0982  163.0983 C.ar    1  UNL1        0.1504
      4 C         142.7805  138.7310  161.6763 C.ar    1  UNL1        0.0423
      5 C         143.1690  139.6576  160.5626 C.ar    1  UNL1        0.0597
      6 C         143.8624  140.9515  160.8709 C.ar    1  UNL1        0.0416
      7 C         142.8640  139.2904  159.1405 C.2     1  UNL1        0.2508
      8 O         142.5161  140.3599  158.1479 O.2     1  UNL1       -0.2698
      9 N         142.9070  137.8539  158.7111 N.am    1  UNL1       -0.2646
     10 H         143.1354  137.1520  159.3626 H       1  UNL1        0.1566
     11 C         142.6021  137.4867  157.2890 C.ar    1  UNL1        0.1538
     12 C         143.6597  137.6275  156.2347 C.ar    1  UNL1        0.1328
     13 N         143.3547  137.2603  154.8127 N.ar    1  UNL1       -0.2436
     14 C         141.9921  136.7523  154.4450 C.ar    1  UNL1        0.0786
     15 C         141.6871  136.3851  153.0229 C.3     1  UNL1        0.0538
     16 C         140.9345  136.6115  155.4993 C.ar    1  UNL1        0.1150
     17 N         141.2394  136.9787  156.9213 N.ar    1  UNL1       -0.2262
     18 O         144.8608  142.6126  162.6012 O.3     1  UNL1       -0.4765
     19 C         144.1802  143.6444  163.4510 C.3     1  UNL1        0.1954
     20 C         144.4336  143.6846  164.9289 C.3     1  UNL1        0.0500
     21 C         143.2461  144.6359  162.8229 C.3     1  UNL1        0.1855
     22 C         141.3888  144.7110  161.0077 C.3     1  UNL1        0.1743
     23 O         142.8160  144.4619  161.3965 O.3     1  UNL1       -0.3473
     24 O         142.6971  138.1715  164.2120 O.3     1  UNL1       -0.4352
     25 C         142.1470  138.7268  165.4923 C.ar    1  UNL1        0.2403
     26 N         143.0546  138.9446  166.6666 N.ar    1  UNL1       -0.2090
     27 C         142.5045  139.4999  167.9468 C.ar    1  UNL1        0.1066
     28 C         141.0468  139.8375  168.0528 C.ar    1  UNL1        0.0738
     29 C         140.1392  139.6197  166.8785 C.ar    1  UNL1        0.0222
     30 C         140.6893  139.0644  165.5983 C.ar    1  UNL1        0.1112
     31 CL        139.7817  138.8466  164.4240 Cl      1  UNL1       -0.0774
     32 C         140.4967  140.3928  169.3330 C.2     1  UNL1        0.2506
     33 O         140.0267  139.4637  170.4128 O.2     1  UNL1       -0.2699
     34 N         140.4166  141.8772  169.5334 N.am    1  UNL1       -0.2759
     35 C         140.7764  143.0794  168.7117 C.3     1  UNL1        0.0955
     36 C         140.3033  143.9765  169.8170 C.3     1  UNL1        0.0430
     37 C         139.9435  142.7742  170.6387 C.3     1  UNL1        0.0955
@<TRIPOS>BOND
     1    22    23    1
     2    23    21    1
     3    21    19    1
     4    19    20    1
     5    19    18    1
     6    18     1    1
     7     1     2   ar
     8     2     3   ar
     9     3    24    1
    10    24    25    1
    11    25    26   ar
    12    26    27   ar
    13    27    28   ar
    14    28    32    1
    15    32    33    2
    16    32    34   am
    17    34    35    1
    18    35    36    1
    19    36    37    1
    20    28    29   ar
    21    29    30   ar
    22    30    31    1
    23     3     4   ar
    24     4     5   ar
    25     5     7    1
    26     7     8    2
    27     7     9   am
    28     9    11    1
    29    11    12   ar
    30    12    13   ar
    31    13    14   ar
    32    14    15    1
    33    14    16   ar
    34    16    17   ar
    35     5     6   ar
    36     6     1   ar
    37    30    25   ar
    38    17    11   ar
    39    37    34    1
    40     9    10    1
@<TRIPOS>MOLECULE
*****
 37 40 0 0 0
SMALL
GASTEIGER

@<TRIPOS>ATOM
      1 C         142.0440  141.2531  161.8353 C.ar    1  UNL1        0.1417
      2 C         142.0046  140.4555  163.1051 C.ar    1  UNL1        0.0744
      3 C         141.8183  138.9681  163.0510 C.ar    1  UNL1        0.1504
      4 C         141.6715  138.2783  161.7272 C.ar    1  UNL1        0.0423
      5 C         141.7110  139.0759  160.4574 C.ar    1  UNL1        0.0597
      6 C         141.8972  140.5633  160.5115 C.ar    1  UNL1        0.0416
      7 C         141.5642  138.3861  159.1335 C.2     1  UNL1        0.2508
      8 O         140.2163  138.2923  158.4821 O.2     1  UNL1       -0.2698
      9 N         142.7652  137.7900  158.4611 N.am    1  UNL1       -0.2646
     10 H         143.6499  137.8516  158.8887 H       1  UNL1        0.1566
     11 C         142.6184  137.1002  157.1372 C.ar    1  UNL1        0.1538
     12 C         142.9431  135.6412  157.0117 C.ar    1  UNL1        0.1328
     13 N         142.7963  134.9514  155.6878 N.ar    1  UNL1       -0.2436
     14 C         142.3248  135.7207  154.4895 C.ar    1  UNL1        0.0786
     15 C         142.1780  135.0309  153.1656 C.3     1  UNL1        0.0538
     16 C         142.0001  137.1797  154.6150 C.ar    1  UNL1        0.1150
     17 N         142.1469  137.8695  155.9389 N.ar    1  UNL1       -0.2262
     18 O         142.2303  142.7405  161.8894 O.3     1  UNL1       -0.4765
     19 C         142.6521  143.3975  163.1702 C.3     1  UNL1        0.1954
     20 C         141.6216  143.9974  164.0802 C.3     1  UNL1        0.0500
     21 C         144.1045  143.4545  163.5410 C.3     1  UNL1        0.1855
     22 C         145.8273  141.5124  163.6405 C.3     1  UNL1        0.1743
     23 O         145.0897  142.5556  162.8546 O.3     1  UNL1       -0.3473
     24 O         141.7788  138.1706  164.3208 O.3     1  UNL1       -0.4352
     25 C         141.2545  138.7925  165.5811 C.ar    1  UNL1        0.2403
     26 N         142.2074  139.2375  166.6506 N.ar    1  UNL1       -0.2090
     27 C         141.6831  139.8594  167.9109 C.ar    1  UNL1        0.1066
     28 C         140.2057  140.0363  168.1016 C.ar    1  UNL1        0.0738
     29 C         139.2529  139.5913  167.0321 C.ar    1  UNL1        0.0222
     30 C         139.7772  138.9694  165.7718 C.ar    1  UNL1        0.1112
     31 CL        138.8243  138.5243  164.7023 Cl      1  UNL1       -0.0774
     32 C         139.6814  140.6582  169.3619 C.2     1  UNL1        0.2506
     33 O         138.8660  139.8402  170.3190 O.2     1  UNL1       -0.2699
     34 N         139.9724  142.0982  169.6650 N.am    1  UNL1       -0.2759
     35 C         140.7251  143.1965  168.9742 C.3     1  UNL1        0.0955
     36 C         140.3839  144.1346  170.0938 C.3     1  UNL1        0.0430
     37 C         139.6312  143.0363  170.7847 C.3     1  UNL1        0.0955
@<TRIPOS>BOND
     1    22    23    1
     2    23    21    1
     3    21    19    1
     4    19    20    1
     5    19    18    1
     6    18     1    1
     7     1     2   ar
     8     2     3   ar
     9     3    24    1
    10    24    25    1
    11    25    26   ar
    12    26    27   ar
    13    27    28   ar
    14    28    32    1
    15    32    33    2
    16    32    34   am
    17    34    35    1
    18    35    36    1
    19    36    37    1
    20    28    29   ar
    21    29    30   ar
    22    30    31    1
    23     3     4   ar
    24     4     5   ar
    25     5     7    1
    26     7     8    2
    27     7     9   am
    28     9    11    1
    29    11    12   ar
    30    12    13   ar
    31    13    14   ar
    32    14    15    1
    33    14    16   ar
    34    16    17   ar
    35     5     6   ar
    36     6     1   ar
    37    30    25   ar
    38    17    11   ar
    39    37    34    1
    40     9    10    1
@<TRIPOS>MOLECULE
*****
 37 40 0 0 0
SMALL
GASTEIGER

@<TRIPOS>ATOM
      1 C         141.9149  141.2383  161.8171 C.ar    1  UNL1        0.1417
      2 C         141.8173  140.4161  163.0678 C.ar    1  UNL1        0.0744
      3 C         141.5590  138.9413  162.9776 C.ar    1  UNL1        0.1504
      4 C         141.3983  138.2887  161.6366 C.ar    1  UNL1        0.0423
      5 C         141.4958  139.1109  160.3859 C.ar    1  UNL1        0.0597
      6 C         141.7542  140.5857  160.4761 C.ar    1  UNL1        0.0416
      7 C         141.3351  138.4583  159.0448 C.2     1  UNL1        0.2508
      8 O         139.9655  138.2637  158.4648 O.2     1  UNL1       -0.2698
      9 N         142.5439  138.0003  158.2839 N.am    1  UNL1       -0.2646
     10 H         143.4428  138.1280  158.6646 H       1  UNL1        0.1566
     11 C         142.3831  137.3477  156.9428 C.ar    1  UNL1        0.1538
     12 C         142.6036  135.8713  156.7960 C.ar    1  UNL1        0.1328
     13 N         142.4428  135.2188  155.4550 N.ar    1  UNL1       -0.2436
     14 C         142.0616  136.0427  154.2609 C.ar    1  UNL1        0.0786
     15 C         141.9009  135.3900  152.9198 C.3     1  UNL1        0.0538
     16 C         141.8412  137.5190  154.4077 C.ar    1  UNL1        0.1150
     17 N         142.0019  138.1716  155.7487 N.ar    1  UNL1       -0.2262
     18 O         142.1732  142.7132  161.9073 O.3     1  UNL1       -0.4765
     19 C         142.7815  143.2934  163.1495 C.3     1  UNL1        0.1954
     20 C         144.2715  143.3010  163.3220 C.3     1  UNL1        0.0500
     21 C         141.8997  143.8662  164.2194 C.3     1  UNL1        0.1855
     22 C         139.8100  142.7849  165.3211 C.3     1  UNL1        0.1743
     23 O         141.2977  142.9657  165.2569 O.3     1  UNL1       -0.3473
     24 O         141.4614  138.1191  164.2284 O.3     1  UNL1       -0.4352
     25 C         141.0045  138.7529  165.5088 C.ar    1  UNL1        0.2403
     26 N         142.0121  139.1924  166.5295 N.ar    1  UNL1       -0.2090
     27 C         141.5551  139.8263  167.8099 C.ar    1  UNL1        0.1066
     28 C         140.0906  140.0206  168.0696 C.ar    1  UNL1        0.0738
     29 C         139.0831  139.5811  167.0490 C.ar    1  UNL1        0.0222
     30 C         139.5400  138.9473  165.7686 C.ar    1  UNL1        0.1112
     31 CL        138.5324  138.5078  164.7479 Cl      1  UNL1       -0.0774
     32 C         139.6336  140.6544  169.3500 C.2     1  UNL1        0.2506
     33 O         138.8514  139.8517  170.3469 O.2     1  UNL1       -0.2699
     34 N         139.9589  142.0911  169.6336 N.am    1  UNL1       -0.2759
     35 C         140.6948  143.1759  168.9044 C.3     1  UNL1        0.0955
     36 C         140.4189  144.1227  170.0346 C.3     1  UNL1        0.0430
     37 C         139.6830  143.0379  170.7638 C.3     1  UNL1        0.0955
@<TRIPOS>BOND
     1    22    23    1
     2    23    21    1
     3    21    19    1
     4    19    20    1
     5    19    18    1
     6    18     1    1
     7     1     2   ar
     8     2     3   ar
     9     3    24    1
    10    24    25    1
    11    25    26   ar
    12    26    27   ar
    13    27    28   ar
    14    28    32    1
    15    32    33    2
    16    32    34   am
    17    34    35    1
    18    35    36    1
    19    36    37    1
    20    28    29   ar
    21    29    30   ar
    22    30    31    1
    23     3     4   ar
    24     4     5   ar
    25     5     7    1
    26     7     8    2
    27     7     9   am
    28     9    11    1
    29    11    12   ar
    30    12    13   ar
    31    13    14   ar
    32    14    15    1
    33    14    16   ar
    34    16    17   ar
    35     5     6   ar
    36     6     1   ar
    37    30    25   ar
    38    17    11   ar
    39    37    34    1
    40     9    10    1
@<TRIPOS>MOLECULE
*****
 37 40 0 0 0
SMALL
GASTEIGER

@<TRIPOS>ATOM
      1 C         142.5939  143.2959  161.1399 C.ar    1  UNL1        0.1417
      2 C         142.1951  142.1241  161.9872 C.ar    1  UNL1        0.0744
      3 C         142.5929  140.7357  161.5820 C.ar    1  UNL1        0.1504
      4 C         143.3895  140.5192  160.3296 C.ar    1  UNL1        0.0423
      5 C         143.7883  141.6910  159.4824 C.ar    1  UNL1        0.0597
      6 C         143.3905  143.0793  159.8876 C.ar    1  UNL1        0.0416
      7 C         144.5849  141.4744  158.2299 C.2     1  UNL1        0.2508
      8 O         144.6518  140.1101  157.6102 O.2     1  UNL1       -0.2698
      9 N         145.3145  142.6222  157.5973 N.am    1  UNL1       -0.2646
     10 H         145.2705  143.5176  158.0041 H       1  UNL1        0.1566
     11 C         146.1111  142.4056  156.3448 C.ar    1  UNL1        0.1538
     12 C         147.6097  142.3827  156.4037 C.ar    1  UNL1        0.1328
     13 N         148.4063  142.1662  155.1513 N.ar    1  UNL1       -0.2436
     14 C         147.7042  141.9725  153.8400 C.ar    1  UNL1        0.0786
     15 C         148.5008  141.7560  152.5875 C.3     1  UNL1        0.0538
     16 C         146.2055  141.9954  153.7811 C.ar    1  UNL1        0.1150
     17 N         145.4090  142.2120  155.0335 N.ar    1  UNL1       -0.2262
     18 O         142.1961  144.6843  161.5451 O.3     1  UNL1       -0.4765
     19 C         140.8271  145.1993  161.2128 C.3     1  UNL1        0.1954
     20 C         140.0010  145.8699  162.2701 C.3     1  UNL1        0.0500
     21 C         140.2842  145.0439  159.8231 C.3     1  UNL1        0.1855
     22 C         138.9069  142.9707  160.5680 C.3     1  UNL1        0.1743
     23 O         139.4329  143.8578  159.4788 O.3     1  UNL1       -0.3473
     24 O         142.1941  139.5639  162.4293 O.3     1  UNL1       -0.4352
     25 C         141.6014  139.7886  163.7888 C.ar    1  UNL1        0.2403
     26 N         140.1320  140.0542  163.9319 N.ar    1  UNL1       -0.2090
     27 C         139.5394  140.2788  165.2914 C.ar    1  UNL1        0.1066
     28 C         140.4161  140.2379  166.5078 C.ar    1  UNL1        0.0738
     29 C         141.8855  139.9723  166.3647 C.ar    1  UNL1        0.0222
     30 C         142.4781  139.7477  165.0052 C.ar    1  UNL1        0.1112
     31 CL        143.9475  139.4821  164.8621 Cl      1  UNL1       -0.0774
     32 C         139.8235  140.4626  167.8674 C.2     1  UNL1        0.2506
     33 O         138.8601  139.4655  168.4396 O.2     1  UNL1       -0.2699
     34 N         140.1943  141.6844  168.6546 N.am    1  UNL1       -0.2759
     35 C         141.0918  142.8637  168.4226 C.3     1  UNL1        0.0955
     36 C         140.7187  143.4123  169.7679 C.3     1  UNL1        0.0430
     37 C         139.8212  142.2330  169.9999 C.3     1  UNL1        0.0955
@<TRIPOS>BOND
     1    22    23    1
     2    23    21    1
     3    21    19    1
     4    19    20    1
     5    19    18    1
     6    18     1    1
     7     1     2   ar
     8     2     3   ar
     9     3    24    1
    10    24    25    1
    11    25    26   ar
    12    26    27   ar
    13    27    28   ar
    14    28    32    1
    15    32    33    2
    16    32    34   am
    17    34    35    1
    18    35    36    1
    19    36    37    1
    20    28    29   ar
    21    29    30   ar
    22    30    31    1
    23     3     4   ar
    24     4     5   ar
    25     5     7    1
    26     7     8    2
    27     7     9   am
    28     9    11    1
    29    11    12   ar
    30    12    13   ar
    31    13    14   ar
    32    14    15    1
    33    14    16   ar
    34    16    17   ar
    35     5     6   ar
    36     6     1   ar
    37    30    25   ar
    38    17    11   ar
    39    37    34    1
    40     9    10    1
@<TRIPOS>MOLECULE
*****
 37 40 0 0 0
SMALL
GASTEIGER

@<TRIPOS>ATOM
      1 C         142.5929  143.0959  161.2117 C.ar    1  UNL1        0.1417
      2 C         141.7323  141.9509  161.6569 C.ar    1  UNL1        0.0744
      3 C         141.7873  140.6426  160.9252 C.ar    1  UNL1        0.1504
      4 C         142.7029  140.4794  159.7483 C.ar    1  UNL1        0.0423
      5 C         143.5635  141.6244  159.3032 C.ar    1  UNL1        0.0597
      6 C         143.5085  142.9327  160.0349 C.ar    1  UNL1        0.0416
      7 C         144.4791  141.4612  158.1263 C.2     1  UNL1        0.2508
      8 O         144.6268  140.1199  157.4713 O.2     1  UNL1       -0.2698
      9 N         145.2470  142.6393  157.6044 N.am    1  UNL1       -0.2646
     10 H         145.1501  143.5197  158.0343 H       1  UNL1        0.1566
     11 C         146.1627  142.4761  156.4275 C.ar    1  UNL1        0.1538
     12 C         145.6050  142.4941  155.0352 C.ar    1  UNL1        0.1328
     13 N         146.5206  142.3309  153.8584 N.ar    1  UNL1       -0.2436
     14 C         147.9939  142.1497  154.0739 C.ar    1  UNL1        0.0786
     15 C         148.9096  141.9865  152.8970 C.3     1  UNL1        0.0538
     16 C         148.5516  142.1317  155.4662 C.ar    1  UNL1        0.1150
     17 N         147.6360  142.2949  156.6430 N.ar    1  UNL1       -0.2262
     18 O         142.5379  144.4042  161.9434 O.3     1  UNL1       -0.4765
     19 C         141.2324  144.9063  162.4851 C.3     1  UNL1        0.1954
     20 C         140.2132  145.4981  161.5571 C.3     1  UNL1        0.0500
     21 C         140.9460  144.8167  163.9548 C.3     1  UNL1        0.1855
     22 C         142.0954  142.8782  165.2476 C.3     1  UNL1        0.1743
     23 O         140.8694  143.4762  164.6236 O.3     1  UNL1       -0.3473
     24 O         140.9266  139.4975  161.3704 O.3     1  UNL1       -0.4352
     25 C         140.4071  139.4524  162.7768 C.ar    1  UNL1        0.2403
     26 N         139.0332  139.9691  163.0858 N.ar    1  UNL1       -0.2090
     27 C         138.5137  139.9239  164.4923 C.ar    1  UNL1        0.1066
     28 C         139.3681  139.3620  165.5897 C.ar    1  UNL1        0.0738
     29 C         140.7420  138.8453  165.2807 C.ar    1  UNL1        0.0222
     30 C         141.2615  138.8905  163.8742 C.ar    1  UNL1        0.1112
     31 CL        142.6354  138.3738  163.5653 Cl      1  UNL1       -0.0774
     32 C         138.8486  139.3169  166.9962 C.2     1  UNL1        0.2506
     33 O         137.7185  138.3959  167.3490 O.2     1  UNL1       -0.2699
     34 N         139.4593  140.1927  168.0497 N.am    1  UNL1       -0.2759
     35 C         140.5646  141.2065  168.0765 C.3     1  UNL1        0.0955
     36 C         140.3229  141.4313  169.5398 C.3     1  UNL1        0.0430
     37 C         139.2176  140.4176  169.5130 C.3     1  UNL1        0.0955
@<TRIPOS>BOND
     1    22    23    1
     2    23    21    1
     3    21    19    1
     4    19    20    1
     5    19    18    1
     6    18     1    1
     7     1     2   ar
     8     2     3   ar
     9     3    24    1
    10    24    25    1
    11    25    26   ar
    12    26    27   ar
    13    27    28   ar
    14    28    32    1
    15    32    33    2
    16    32    34   am
    17    34    35    1
    18    35    36    1
    19    36    37    1
    20    28    29   ar
    21    29    30   ar
    22    30    31    1
    23     3     4   ar
    24     4     5   ar
    25     5     7    1
    26     7     8    2
    27     7     9   am
    28     9    11    1
    29    11    12   ar
    30    12    13   ar
    31    13    14   ar
    32    14    15    1
    33    14    16   ar
    34    16    17   ar
    35     5     6   ar
    36     6     1   ar
    37    30    25   ar
    38    17    11   ar
    39    37    34    1
    40     9    10    1
@<TRIPOS>MOLECULE
*****
 37 40 0 0 0
SMALL
GASTEIGER

@<TRIPOS>ATOM
      1 C         143.8958  141.5665  162.3607 C.ar    1  UNL1        0.1417
      2 C         142.5166  141.0210  162.5848 C.ar    1  UNL1        0.0744
      3 C         141.7279  140.4784  161.4300 C.ar    1  UNL1        0.1504
      4 C         142.3183  140.4814  160.0511 C.ar    1  UNL1        0.0423
      5 C         143.6975  141.0270  159.8270 C.ar    1  UNL1        0.0597
      6 C         144.4862  141.5695  160.9819 C.ar    1  UNL1        0.0416
      7 C         144.2880  141.0300  158.4481 C.2     1  UNL1        0.2508
      8 O         144.2810  139.7750  157.6265 O.2     1  UNL1       -0.2698
      9 N         144.8855  142.2879  157.8909 N.am    1  UNL1       -0.2646
     10 H         144.8901  143.1116  158.4301 H       1  UNL1        0.1566
     11 C         145.4760  142.2909  156.5119 C.ar    1  UNL1        0.1538
     12 C         144.6081  142.5874  155.3250 C.ar    1  UNL1        0.1328
     13 N         145.1987  142.5904  153.9462 N.ar    1  UNL1       -0.2436
     14 C         146.6571  142.2970  153.7543 C.ar    1  UNL1        0.0786
     15 C         147.2476  142.3000  152.3754 C.3     1  UNL1        0.0538
     16 C         147.5250  142.0005  154.9412 C.ar    1  UNL1        0.1150
     17 N         146.9345  141.9975  156.3200 N.ar    1  UNL1       -0.2262
     18 O         144.6845  142.1091  163.5155 O.3     1  UNL1       -0.4765
     19 C         144.2155  143.3411  164.2312 C.3     1  UNL1        0.1954
     20 C         144.1162  143.3470  165.7279 C.3     1  UNL1        0.0500
     21 C         143.8459  144.5673  163.4502 C.3     1  UNL1        0.1855
     22 C         141.4690  144.9119  162.4594 C.3     1  UNL1        0.1743
     23 O         142.4630  145.1378  163.5598 O.3     1  UNL1       -0.3473
     24 O         140.3487  139.9329  161.6541 O.3     1  UNL1       -0.4352
     25 C         139.8368  139.7385  163.0506 C.ar    1  UNL1        0.2403
     26 N         139.0780  140.8390  163.7312 N.ar    1  UNL1       -0.2090
     27 C         138.5662  140.6446  165.1278 C.ar    1  UNL1        0.1066
     28 C         138.8131  139.3497  165.8436 C.ar    1  UNL1        0.0738
     29 C         139.5719  138.2493  165.1629 C.ar    1  UNL1        0.0222
     30 C         140.0837  138.4437  163.7664 C.ar    1  UNL1        0.1112
     31 CL        140.8425  137.3432  163.0858 Cl      1  UNL1       -0.0774
     32 C         138.3013  139.1553  167.2401 C.2     1  UNL1        0.2506
     33 O         137.1953  138.1770  167.5041 O.2     1  UNL1       -0.2699
     34 N         138.8955  139.9392  168.3726 N.am    1  UNL1       -0.2759
     35 C         139.9761  140.9723  168.4955 C.3     1  UNL1        0.0955
     36 C         139.7357  141.0478  169.9742 C.3     1  UNL1        0.0430
     37 C         138.6551  140.0148  169.8513 C.3     1  UNL1        0.0955
@<TRIPOS>BOND
     1    22    23    1
     2    23    21    1
     3    21    19    1
     4    19    20    1
     5    19    18    1
     6    18     1    1
     7     1     2   ar
     8     2     3   ar
     9     3    24    1
    10    24    25    1
    11    25    26   ar
    12    26    27   ar
    13    27    28   ar
    14    28    32    1
    15    32    33    2
    16    32    34   am
    17    34    35    1
    18    35    36    1
    19    36    37    1
    20    28    29   ar
    21    29    30   ar
    22    30    31    1
    23     3     4   ar
    24     4     5   ar
    25     5     7    1
    26     7     8    2
    27     7     9   am
    28     9    11    1
    29    11    12   ar
    30    12    13   ar
    31    13    14   ar
    32    14    15    1
    33    14    16   ar
    34    16    17   ar
    35     5     6   ar
    36     6     1   ar
    37    30    25   ar
    38    17    11   ar
    39    37    34    1
    40     9    10    1
@<TRIPOS>MOLECULE
*****
 37 40 0 0 0
SMALL
GASTEIGER

@<TRIPOS>ATOM
      1 C         141.6189  140.7067  159.6337 C.ar    1  UNL1        0.1417
      2 C         140.3756  140.4480  160.4319 C.ar    1  UNL1        0.0744
      3 C         139.4988  139.2781  160.0964 C.ar    1  UNL1        0.1504
      4 C         139.8653  138.3670  158.9626 C.ar    1  UNL1        0.0423
      5 C         141.1086  138.6258  158.1643 C.ar    1  UNL1        0.0597
      6 C         141.9854  139.7956  158.4999 C.ar    1  UNL1        0.0416
      7 C         141.4751  137.7146  157.0304 C.2     1  UNL1        0.2508
      8 O         142.8455  137.7852  156.4245 O.2     1  UNL1       -0.2698
      9 N         140.4713  136.7330  156.5026 N.am    1  UNL1       -0.2646
     10 H         139.5719  136.6867  156.9003 H       1  UNL1        0.1566
     11 C         140.8378  135.8219  155.3687 C.ar    1  UNL1        0.1538
     12 C         140.5440  136.2281  153.9550 C.ar    1  UNL1        0.1328
     13 N         140.9105  135.3170  152.8212 N.ar    1  UNL1       -0.2436
     14 C         141.5709  133.9996  153.1011 C.ar    1  UNL1        0.0786
     15 C         141.9374  133.0885  151.9673 C.3     1  UNL1        0.0538
     16 C         141.8648  133.5934  154.5148 C.ar    1  UNL1        0.1150
     17 N         141.4982  134.5045  155.6486 N.ar    1  UNL1       -0.2262
     18 O         142.4957  141.8766  159.9692 O.3     1  UNL1       -0.4765
     19 C         143.1230  141.9784  161.3279 C.3     1  UNL1        0.1954
     20 C         142.4857  142.8289  162.3864 C.3     1  UNL1        0.0500
     21 C         144.3877  141.2296  161.6281 C.3     1  UNL1        0.1855
     22 C         144.8884  139.9558  163.8365 C.3     1  UNL1        0.1743
     23 O         144.3384  139.9699  162.4410 O.3     1  UNL1       -0.3473
     24 O         138.2555  139.0193  160.8947 O.3     1  UNL1       -0.4352
     25 C         138.3072  139.0474  162.3935 C.ar    1  UNL1        0.2403
     26 N         138.7432  137.8288  163.1519 N.ar    1  UNL1       -0.2090
     27 C         138.7949  137.8568  164.6507 C.ar    1  UNL1        0.1066
     28 C         138.4106  139.1035  165.3912 C.ar    1  UNL1        0.0738
     29 C         137.9747  140.3220  164.6329 C.ar    1  UNL1        0.0222
     30 C         137.9230  140.2939  163.1340 C.ar    1  UNL1        0.1112
     31 CL        137.4870  141.5126  162.3757 Cl      1  UNL1       -0.0774
     32 C         138.4623  139.1315  166.8901 C.2     1  UNL1        0.2506
     33 O         137.4583  138.3555  167.6898 O.2     1  UNL1       -0.2699
     34 N         139.5181  139.9357  167.5892 N.am    1  UNL1       -0.2759
     35 C         140.6535  140.8097  167.1451 C.3     1  UNL1        0.0955
     36 C         141.0112  141.0729  168.5779 C.3     1  UNL1        0.0430
     37 C         139.8759  140.1989  169.0219 C.3     1  UNL1        0.0955
@<TRIPOS>BOND
     1    22    23    1
     2    23    21    1
     3    21    19    1
     4    19    20    1
     5    19    18    1
     6    18     1    1
     7     1     2   ar
     8     2     3   ar
     9     3    24    1
    10    24    25    1
    11    25    26   ar
    12    26    27   ar
    13    27    28   ar
    14    28    32    1
    15    32    33    2
    16    32    34   am
    17    34    35    1
    18    35    36    1
    19    36    37    1
    20    28    29   ar
    21    29    30   ar
    22    30    31    1
    23     3     4   ar
    24     4     5   ar
    25     5     7    1
    26     7     8    2
    27     7     9   am
    28     9    11    1
    29    11    12   ar
    30    12    13   ar
    31    13    14   ar
    32    14    15    1
    33    14    16   ar
    34    16    17   ar
    35     5     6   ar
    36     6     1   ar
    37    30    25   ar
    38    17    11   ar
    39    37    34    1
    40     9    10    1
@<TRIPOS>MOLECULE
*****
 37 40 0 0 0
SMALL
GASTEIGER

@<TRIPOS>ATOM
      1 C         141.5191  142.5725  161.1432 C.ar    1  UNL1        0.1417
      2 C         142.3009  142.5848  162.4232 C.ar    1  UNL1        0.0744
      3 C         143.7676  142.2710  162.4093 C.ar    1  UNL1        0.1504
      4 C         144.4525  141.9449  161.1152 C.ar    1  UNL1        0.0423
      5 C         143.6707  141.9326  159.8352 C.ar    1  UNL1        0.0597
      6 C         142.2040  142.2464  159.8492 C.ar    1  UNL1        0.0416
      7 C         144.3556  141.6065  158.5411 C.2     1  UNL1        0.2508
      8 O         144.3648  140.1956  158.0321 O.2     1  UNL1       -0.2698
      9 N         145.0314  142.6914  157.7560 N.am    1  UNL1       -0.2646
     10 H         145.0254  143.6175  158.0901 H       1  UNL1        0.1566
     11 C         145.7163  142.3653  156.4619 C.ar    1  UNL1        0.1538
     12 C         147.2144  142.3618  156.3863 C.ar    1  UNL1        0.1328
     13 N         147.8992  142.0357  155.0923 N.ar    1  UNL1       -0.2436
     14 C         147.0860  141.7132  153.8738 C.ar    1  UNL1        0.0786
     15 C         147.7709  141.3871  152.5797 C.3     1  UNL1        0.0538
     16 C         145.5879  141.7167  153.9494 C.ar    1  UNL1        0.1150
     17 N         144.9031  142.0428  155.2435 N.ar    1  UNL1       -0.2262
     18 O         140.0523  142.8863  161.1572 O.3     1  UNL1       -0.4765
     19 C         139.5030  143.8591  162.1580 C.3     1  UNL1        0.1954
     20 C         139.7287  145.3308  161.9756 C.3     1  UNL1        0.0500
     21 C         138.7279  143.3603  163.3415 C.3     1  UNL1        0.1855
     22 C         138.6493  144.9047  165.4293 C.3     1  UNL1        0.1743
     23 O         137.9853  144.3285  164.2138 O.3     1  UNL1       -0.3473
     24 O         144.5495  142.2833  163.6894 O.3     1  UNL1       -0.4352
     25 C         143.9798  141.6464  164.9222 C.ar    1  UNL1        0.2403
     26 N         143.5426  142.5016  166.0745 N.ar    1  UNL1       -0.2090
     27 C         142.9729  141.8648  167.3073 C.ar    1  UNL1        0.1066
     28 C         142.8404  140.3727  167.3879 C.ar    1  UNL1        0.0738
     29 C         143.2776  139.5177  166.2357 C.ar    1  UNL1        0.0222
     30 C         143.8473  140.1545  165.0029 C.ar    1  UNL1        0.1112
     31 CL        144.2845  139.2993  163.8506 Cl      1  UNL1       -0.0774
     32 C         142.2707  139.7359  168.6208 C.2     1  UNL1        0.2506
     33 O         143.0243  138.6410  169.3159 O.2     1  UNL1       -0.2699
     34 N         140.9474  140.1940  169.1584 N.am    1  UNL1       -0.2759
     35 C         139.9366  141.2249  168.7515 C.3     1  UNL1        0.0955
     36 C         139.0760  140.8418  169.9188 C.3     1  UNL1        0.0430
     37 C         140.0868  139.8109  170.3257 C.3     1  UNL1        0.0955
@<TRIPOS>BOND
     1    22    23    1
     2    23    21    1
     3    21    19    1
     4    19    20    1
     5    19    18    1
     6    18     1    1
     7     1     2   ar
     8     2     3   ar
     9     3    24    1
    10    24    25    1
    11    25    26   ar
    12    26    27   ar
    13    27    28   ar
    14    28    32    1
    15    32    33    2
    16    32    34   am
    17    34    35    1
    18    35    36    1
    19    36    37    1
    20    28    29   ar
    21    29    30   ar
    22    30    31    1
    23     3     4   ar
    24     4     5   ar
    25     5     7    1
    26     7     8    2
    27     7     9   am
    28     9    11    1
    29    11    12   ar
    30    12    13   ar
    31    13    14   ar
    32    14    15    1
    33    14    16   ar
    34    16    17   ar
    35     5     6   ar
    36     6     1   ar
    37    30    25   ar
    38    17    11   ar
    39    37    34    1
    40     9    10    1
