@<TRIPOS>MOLECULE
*****
 39 44 0 0 0
SMALL
GASTEIGER

@<TRIPOS>ATOM
      1 C         137.8285  142.9666  163.1253 C.3     1  UNL1        0.0932
      2 C         137.6833  141.8108  164.0703 C.3     1  UNL1        0.0286
      3 C         137.7034  140.4058  163.5455 C.3     1  UNL1        0.0193
      4 C         137.8687  140.1565  162.0756 C.3     1  UNL1        0.0700
      5 C         138.0140  141.3123  161.1306 C.3     1  UNL1        0.0193
      6 C         137.9938  142.7174  161.6555 C.3     1  UNL1        0.0286
      7 C         137.8637  140.9439  162.3162 C.3     1  UNL1        0.1562
      8 O         137.8456  142.2144  162.7908 O.3     1  UNL1       -0.3572
      9 N         137.8888  138.7515  161.5507 N.3     1  UNL1       -0.2926
     10 H         137.2977  138.7392  160.7196 H       1  UNL1        0.1236
     11 C         139.1905  138.1132  161.1657 C.3     1  UNL1        0.1152
     12 C         140.3954  138.2784  162.0437 C.ar    1  UNL1        0.0765
     13 C         140.5542  137.4257  163.2676 C.ar    1  UNL1        0.0193
     14 C         141.7591  137.5908  164.1456 C.ar    1  UNL1        0.0411
     15 C         142.8053  138.6086  163.7998 C.ar    1  UNL1        0.1708
     16 C         142.6465  139.4613  162.5760 C.ar    1  UNL1        0.1682
     17 N         141.4416  139.2962  161.6979 N.ar    1  UNL1       -0.2304
     18 N         143.6927  140.4791  162.2302 N.am    1  UNL1       -0.2639
     19 C         144.8976  140.6443  163.1082 C.2     1  UNL1        0.2718
     20 O         145.9438  141.6621  162.7624 O.2     1  UNL1       -0.2707
     21 C         145.0564  139.7916  164.3321 C.3     1  UNL1        0.2898
     22 O         144.0102  138.7737  164.6779 O.3     1  UNL1       -0.4628
     23 H         143.5885  141.0388  161.4270 H       1  UNL1        0.1565
     24 C         137.8084  144.3716  163.6502 C.3     1  UNL1        0.0320
     25 C         138.9209  144.8595  164.5302 C.3     1  UNL1        0.0327
     26 C         140.8661  142.0233  167.4322 C.ar    1  UNL1        0.2534
     27 N         140.2177  142.9687  166.4649 N.ar    1  UNL1       -0.2085
     28 C         140.9741  143.4448  165.2602 C.ar    1  UNL1        0.1003
     29 C         140.3257  144.3902  164.2928 C.ar    1  UNL1        0.0261
     30 C         141.0821  144.8663  163.0882 C.ar    1  UNL1        0.1566
     31 F         140.4337  145.8117  162.1209 F       1  UNL1       -0.2028
     32 C         142.4869  144.3970  162.8509 C.ar    1  UNL1        0.1281
     33 N         143.1353  143.4516  163.8182 N.ar    1  UNL1       -0.2399
     34 C         142.3789  142.9755  165.0229 C.ar    1  UNL1        0.1012
     35 C         143.0273  142.0301  165.9902 C.ar    1  UNL1        0.0551
     36 C         142.2709  141.5540  167.1949 C.ar    1  UNL1        0.1945
     37 F         142.9193  140.6085  168.1623 F       1  UNL1       -0.1992
     38 C         139.5611  140.1516  168.6747 C.3     1  UNL1        0.2543
     39 O         140.1097  141.5471  168.6368 O.3     1  UNL1       -0.4546
@<TRIPOS>BOND
     1    38    39    1
     2    39    26    1
     3    26    27   ar
     4    27    28   ar
     5    28    29   ar
     6    29    25    1
     7    25    24    1
     8    24     1    1
     9     1     2    1
    10     2     3    1
    11     3     4    1
    12     4     9    1
    13     9    11    1
    14    11    12    1
    15    12    13   ar
    16    13    14   ar
    17    14    15   ar
    18    15    16   ar
    19    16    17   ar
    20    16    18    1
    21    18    19   am
    22    19    20    2
    23    19    21    1
    24    21    22    1
    25     4     5    1
    26     5     6    1
    27     4     7    1
    28     7     8    1
    29    29    30   ar
    30    30    31    1
    31    30    32   ar
    32    32    33   ar
    33    33    34   ar
    34    34    35   ar
    35    35    36   ar
    36    36    37    1
    37    36    26   ar
    38    34    28   ar
    39     6     1    1
    40     8     1    1
    41    17    12   ar
    42    22    15    1
    43     9    10    1
    44    18    23    1
@<TRIPOS>MOLECULE
*****
 39 44 0 0 0
SMALL
GASTEIGER

@<TRIPOS>ATOM
      1 C         141.8423  138.2006  163.9512 C.3     1  UNL1        0.0932
      2 C         142.7021  138.7303  165.0604 C.3     1  UNL1        0.0286
      3 C         143.9342  139.5237  164.7407 C.3     1  UNL1        0.0193
      4 C         144.3066  139.7876  163.3118 C.3     1  UNL1        0.0700
      5 C         143.4469  139.2579  162.2026 C.3     1  UNL1        0.0193
      6 C         142.2147  138.4644  162.5223 C.3     1  UNL1        0.0286
      7 C         143.6221  139.3477  163.4376 C.3     1  UNL1        0.1562
      8 O         142.5080  138.6302  163.7267 O.3     1  UNL1       -0.3572
      9 N         145.5387  140.5810  162.9921 N.3     1  UNL1       -0.2926
     10 H         145.6678  140.5302  161.9815 H       1  UNL1        0.1236
     11 C         145.6145  142.0318  163.3658 C.3     1  UNL1        0.1152
     12 C         144.4088  142.9103  163.2100 C.ar    1  UNL1        0.0765
     13 C         143.7465  143.4967  164.4215 C.ar    1  UNL1        0.0193
     14 C         142.5408  144.3753  164.2657 C.ar    1  UNL1        0.0411
     15 C         141.9973  144.6675  162.8985 C.ar    1  UNL1        0.1708
     16 C         142.6595  144.0812  161.6871 C.ar    1  UNL1        0.1682
     17 N         143.8653  143.2025  161.8428 N.ar    1  UNL1       -0.2304
     18 N         142.1160  144.3734  160.3199 N.am    1  UNL1       -0.2639
     19 C         140.9103  145.2520  160.1641 C.2     1  UNL1        0.2718
     20 O         140.3668  145.5442  158.7969 O.2     1  UNL1       -0.2707
     21 C         140.2480  145.8384  161.3756 C.3     1  UNL1        0.2898
     22 O         140.7915  145.5462  162.7428 O.3     1  UNL1       -0.4628
     23 H         142.5507  143.9885  159.5248 H       1  UNL1        0.1565
     24 C         140.6102  137.4071  164.2709 C.3     1  UNL1        0.0320
     25 C         139.3463  138.1113  164.6666 C.3     1  UNL1        0.0327
     26 C         139.6539  142.4280  165.9004 C.ar    1  UNL1        0.2534
     27 N         139.5513  140.9891  165.4891 N.ar    1  UNL1       -0.2085
     28 C         138.8814  140.6241  164.1976 C.ar    1  UNL1        0.1003
     29 C         138.7789  139.1852  163.7864 C.ar    1  UNL1        0.0261
     30 C         138.1090  138.8202  162.4949 C.ar    1  UNL1        0.1566
     31 F         138.0065  137.3813  162.0836 F       1  UNL1       -0.2028
     32 C         137.5416  139.8941  161.6146 C.ar    1  UNL1        0.1281
     33 N         137.6441  141.3329  162.0258 N.ar    1  UNL1       -0.2399
     34 C         138.3140  141.6979  163.3173 C.ar    1  UNL1        0.1012
     35 C         138.4166  143.1368  163.7286 C.ar    1  UNL1        0.0551
     36 C         139.0865  143.5018  165.0201 C.ar    1  UNL1        0.1945
     37 F         139.1890  144.9407  165.4313 F       1  UNL1       -0.1992
     38 C         141.6989  142.2765  167.4956 C.3     1  UNL1        0.2543
     39 O         140.3238  142.7930  167.1919 O.3     1  UNL1       -0.4546
@<TRIPOS>BOND
     1    38    39    1
     2    39    26    1
     3    26    27   ar
     4    27    28   ar
     5    28    29   ar
     6    29    25    1
     7    25    24    1
     8    24     1    1
     9     1     2    1
    10     2     3    1
    11     3     4    1
    12     4     9    1
    13     9    11    1
    14    11    12    1
    15    12    13   ar
    16    13    14   ar
    17    14    15   ar
    18    15    16   ar
    19    16    17   ar
    20    16    18    1
    21    18    19   am
    22    19    20    2
    23    19    21    1
    24    21    22    1
    25     4     5    1
    26     5     6    1
    27     4     7    1
    28     7     8    1
    29    29    30   ar
    30    30    31    1
    31    30    32   ar
    32    32    33   ar
    33    33    34   ar
    34    34    35   ar
    35    35    36   ar
    36    36    37    1
    37    36    26   ar
    38    34    28   ar
    39     6     1    1
    40     8     1    1
    41    17    12   ar
    42    22    15    1
    43     9    10    1
    44    18    23    1
@<TRIPOS>MOLECULE
*****
 39 44 0 0 0
SMALL
GASTEIGER

@<TRIPOS>ATOM
      1 C         141.8259  138.0966  164.2394 C.3     1  UNL1        0.0932
      2 C         141.9837  138.4797  162.7978 C.3     1  UNL1        0.0286
      3 C         143.1927  139.2489  162.3542 C.3     1  UNL1        0.0193
      4 C         144.2439  139.6349  163.3522 C.3     1  UNL1        0.0700
      5 C         144.0861  139.2517  164.7939 C.3     1  UNL1        0.0193
      6 C         142.8771  138.4825  165.2375 C.3     1  UNL1        0.0286
      7 C         143.5989  139.2135  163.6427 C.3     1  UNL1        0.1562
      8 O         142.5057  138.5180  164.0438 O.3     1  UNL1       -0.3572
      9 N         145.4529  140.4040  162.9086 N.3     1  UNL1       -0.2926
     10 H         145.5039  140.3128  161.8940 H       1  UNL1        0.1236
     11 C         145.5659  141.8674  163.2180 C.3     1  UNL1        0.1152
     12 C         144.3600  142.7526  163.1081 C.ar    1  UNL1        0.0765
     13 C         143.6862  143.2597  164.3486 C.ar    1  UNL1        0.0193
     14 C         142.4803  144.1449  164.2386 C.ar    1  UNL1        0.0411
     15 C         141.9482  144.5231  162.8881 C.ar    1  UNL1        0.1708
     16 C         142.6220  144.0161  161.6476 C.ar    1  UNL1        0.1682
     17 N         143.8279  143.1308  161.7576 N.ar    1  UNL1       -0.2304
     18 N         142.0899  144.3943  160.2971 N.am    1  UNL1       -0.2639
     19 C         140.8840  145.2795  160.1872 C.2     1  UNL1        0.2718
     20 O         140.3519  145.6577  158.8367 O.2     1  UNL1       -0.2707
     21 C         140.2101  145.7866  161.4277 C.3     1  UNL1        0.2898
     22 O         140.7422  145.4084  162.7782 O.3     1  UNL1       -0.4628
     23 H         142.5321  144.0615  159.4829 H       1  UNL1        0.1565
     24 C         140.6170  137.3274  164.6830 C.3     1  UNL1        0.0320
     25 C         139.3800  138.0580  165.1147 C.3     1  UNL1        0.0327
     26 C         140.7867  140.9185  168.2909 C.ar    1  UNL1        0.2534
     27 N         140.3178  139.9651  167.2322 N.ar    1  UNL1       -0.2085
     28 C         139.7364  140.4910  165.9534 C.ar    1  UNL1        0.1003
     29 C         139.2675  139.5375  164.8946 C.ar    1  UNL1        0.0261
     30 C         138.6861  140.0634  163.6158 C.ar    1  UNL1        0.1566
     31 F         138.2172  139.1100  162.5571 F       1  UNL1       -0.2028
     32 C         138.5736  141.5430  163.3958 C.ar    1  UNL1        0.1281
     33 N         139.0425  142.4965  164.4545 N.ar    1  UNL1       -0.2399
     34 C         139.6239  141.9705  165.7333 C.ar    1  UNL1        0.1012
     35 C         140.0928  142.9240  166.7921 C.ar    1  UNL1        0.0551
     36 C         140.6742  142.3980  168.0708 C.ar    1  UNL1        0.1945
     37 F         141.1431  143.3516  169.1296 F       1  UNL1       -0.1992
     38 C         140.5572  140.4243  170.8312 C.3     1  UNL1        0.2543
     39 O         141.3681  140.3926  169.5697 O.3     1  UNL1       -0.4546
@<TRIPOS>BOND
     1    38    39    1
     2    39    26    1
     3    26    27   ar
     4    27    28   ar
     5    28    29   ar
     6    29    25    1
     7    25    24    1
     8    24     1    1
     9     1     2    1
    10     2     3    1
    11     3     4    1
    12     4     9    1
    13     9    11    1
    14    11    12    1
    15    12    13   ar
    16    13    14   ar
    17    14    15   ar
    18    15    16   ar
    19    16    17   ar
    20    16    18    1
    21    18    19   am
    22    19    20    2
    23    19    21    1
    24    21    22    1
    25     4     5    1
    26     5     6    1
    27     4     7    1
    28     7     8    1
    29    29    30   ar
    30    30    31    1
    31    30    32   ar
    32    32    33   ar
    33    33    34   ar
    34    34    35   ar
    35    35    36   ar
    36    36    37    1
    37    36    26   ar
    38    34    28   ar
    39     6     1    1
    40     8     1    1
    41    17    12   ar
    42    22    15    1
    43     9    10    1
    44    18    23    1
@<TRIPOS>MOLECULE
*****
 39 44 0 0 0
SMALL
GASTEIGER

@<TRIPOS>ATOM
      1 C         144.4533  139.7329  163.7143 C.3     1  UNL1        0.0932
      2 C         143.4677  139.3818  164.7892 C.3     1  UNL1        0.0286
      3 C         142.2939  138.5033  164.4726 C.3     1  UNL1        0.0193
      4 C         142.1056  137.9757  163.0811 C.3     1  UNL1        0.0700
      5 C         143.0912  138.3268  162.0062 C.3     1  UNL1        0.0193
      6 C         144.2650  139.2054  162.3228 C.3     1  UNL1        0.0286
      7 C         142.7642  138.4536  163.2066 C.3     1  UNL1        0.1562
      8 O         143.8256  139.2481  163.4929 O.3     1  UNL1       -0.3572
      9 N         140.9318  137.0972  162.7645 N.3     1  UNL1       -0.2926
     10 H         140.7427  136.5455  163.6013 H       1  UNL1        0.1236
     11 C         139.6281  137.7094  162.3457 C.3     1  UNL1        0.1152
     12 C         139.1639  138.9892  162.9754 C.ar    1  UNL1        0.0765
     13 C         138.5879  138.9779  164.3604 C.ar    1  UNL1        0.0193
     14 C         138.1237  140.2577  164.9902 C.ar    1  UNL1        0.0411
     15 C         138.2355  141.5489  164.2350 C.ar    1  UNL1        0.1708
     16 C         138.8115  141.5603  162.8500 C.ar    1  UNL1        0.1682
     17 N         139.2757  140.2804  162.2202 N.ar    1  UNL1       -0.2304
     18 N         138.9232  142.8515  162.0948 N.am    1  UNL1       -0.2639
     19 C         138.4591  144.1313  162.7246 C.2     1  UNL1        0.2718
     20 O         138.5708  145.4224  161.9694 O.2     1  UNL1       -0.2707
     21 C         137.8831  144.1199  164.1096 C.3     1  UNL1        0.2898
     22 O         137.7713  142.8287  164.8648 O.3     1  UNL1       -0.4628
     23 H         139.3013  142.8589  161.1858 H       1  UNL1        0.1565
     24 C         145.6271  140.6114  164.0309 C.3     1  UNL1        0.0320
     25 C         145.6370  142.0417  163.5787 C.3     1  UNL1        0.0327
     26 C         144.2520  142.6516  159.3408 C.ar    1  UNL1        0.2534
     27 N         144.7136  142.4483  160.7534 N.ar    1  UNL1       -0.2085
     28 C         143.8820  142.9547  161.8945 C.ar    1  UNL1        0.1003
     29 C         144.3438  142.7514  163.3071 C.ar    1  UNL1        0.0261
     30 C         143.5122  143.2578  164.4482 C.ar    1  UNL1        0.1566
     31 F         143.9738  143.0545  165.8608 F       1  UNL1       -0.2028
     32 C         142.2189  143.9676  164.1766 C.ar    1  UNL1        0.1281
     33 N         141.7572  144.1709  162.7640 N.ar    1  UNL1       -0.2399
     34 C         142.5888  143.6645  161.6229 C.ar    1  UNL1        0.1012
     35 C         142.1272  143.8678  160.2103 C.ar    1  UNL1        0.0551
     36 C         142.9588  143.3614  159.0693 C.ar    1  UNL1        0.1945
     37 F         142.4970  143.5647  157.6566 F       1  UNL1       -0.1992
     38 C         144.6089  140.9781  157.3858 C.3     1  UNL1        0.2543
     39 O         145.0836  142.1452  158.1998 O.3     1  UNL1       -0.4546
@<TRIPOS>BOND
     1    38    39    1
     2    39    26    1
     3    26    27   ar
     4    27    28   ar
     5    28    29   ar
     6    29    25    1
     7    25    24    1
     8    24     1    1
     9     1     2    1
    10     2     3    1
    11     3     4    1
    12     4     9    1
    13     9    11    1
    14    11    12    1
    15    12    13   ar
    16    13    14   ar
    17    14    15   ar
    18    15    16   ar
    19    16    17   ar
    20    16    18    1
    21    18    19   am
    22    19    20    2
    23    19    21    1
    24    21    22    1
    25     4     5    1
    26     5     6    1
    27     4     7    1
    28     7     8    1
    29    29    30   ar
    30    30    31    1
    31    30    32   ar
    32    32    33   ar
    33    33    34   ar
    34    34    35   ar
    35    35    36   ar
    36    36    37    1
    37    36    26   ar
    38    34    28   ar
    39     6     1    1
    40     8     1    1
    41    17    12   ar
    42    22    15    1
    43     9    10    1
    44    18    23    1
@<TRIPOS>MOLECULE
*****
 39 44 0 0 0
SMALL
GASTEIGER

@<TRIPOS>ATOM
      1 C         142.5429  144.5471  163.4809 C.3     1  UNL1        0.0932
      2 C         142.4966  144.2510  162.0112 C.3     1  UNL1        0.0286
      3 C         141.1803  143.9972  161.3384 C.3     1  UNL1        0.0193
      4 C         139.9101  144.0395  162.1353 C.3     1  UNL1        0.0700
      5 C         139.9564  144.3357  163.6051 C.3     1  UNL1        0.0193
      6 C         141.2729  144.5895  164.2779 C.3     1  UNL1        0.0286
      7 C         140.6076  144.1852  162.5479 C.3     1  UNL1        0.1562
      8 O         141.7979  144.4147  163.1564 O.3     1  UNL1       -0.3572
      9 N         138.5938  143.7858  161.4625 N.3     1  UNL1       -0.2926
     10 H         138.5140  144.4650  160.7058 H       1  UNL1        0.1236
     11 C         138.3023  142.4396  160.8684 C.3     1  UNL1        0.1152
     12 C         138.5013  141.1991  161.6879 C.ar    1  UNL1        0.0765
     13 C         139.1153  139.9799  161.0661 C.ar    1  UNL1        0.0193
     14 C         139.3143  138.7394  161.8856 C.ar    1  UNL1        0.0411
     15 C         138.8994  138.7182  163.3269 C.ar    1  UNL1        0.1708
     16 C         138.2855  139.9373  163.9487 C.ar    1  UNL1        0.1682
     17 N         138.0865  141.1779  163.1292 N.ar    1  UNL1       -0.2304
     18 N         137.8706  139.9160  165.3901 N.am    1  UNL1       -0.2639
     19 C         138.0697  138.6756  166.2096 C.2     1  UNL1        0.2718
     20 O         137.6548  138.6543  167.6509 O.2     1  UNL1       -0.2707
     21 C         138.6836  137.4563  165.5878 C.3     1  UNL1        0.2898
     22 O         139.0985  137.4776  164.1464 O.3     1  UNL1       -0.4628
     23 H         137.4677  140.7162  165.7982 H       1  UNL1        0.1565
     24 C         143.8593  144.8009  164.1538 C.3     1  UNL1        0.0320
     25 C         144.4794  143.7393  165.0131 C.3     1  UNL1        0.0327
     26 C         141.6190  141.7508  167.8616 C.ar    1  UNL1        0.2534
     27 N         142.5724  142.4136  166.9121 N.ar    1  UNL1       -0.2085
     28 C         143.1500  141.6377  165.7656 C.ar    1  UNL1        0.1003
     29 C         144.1035  142.3006  164.8161 C.ar    1  UNL1        0.0261
     30 C         144.6811  141.5247  163.6696 C.ar    1  UNL1        0.1566
     31 F         145.6345  142.1875  162.7202 F       1  UNL1       -0.2028
     32 C         144.3051  140.0859  163.4727 C.ar    1  UNL1        0.1281
     33 N         143.3516  139.4232  164.4222 N.ar    1  UNL1       -0.2399
     34 C         142.7741  140.1991  165.5687 C.ar    1  UNL1        0.1012
     35 C         141.8206  139.5363  166.5181 C.ar    1  UNL1        0.0551
     36 C         141.2431  140.3122  167.6646 C.ar    1  UNL1        0.1945
     37 F         140.2895  139.6493  168.6141 F       1  UNL1       -0.1992
     38 C         141.8052  142.6459  170.2935 C.3     1  UNL1        0.2543
     39 O         141.0414  142.5267  169.0081 O.3     1  UNL1       -0.4546
@<TRIPOS>BOND
     1    38    39    1
     2    39    26    1
     3    26    27   ar
     4    27    28   ar
     5    28    29   ar
     6    29    25    1
     7    25    24    1
     8    24     1    1
     9     1     2    1
    10     2     3    1
    11     3     4    1
    12     4     9    1
    13     9    11    1
    14    11    12    1
    15    12    13   ar
    16    13    14   ar
    17    14    15   ar
    18    15    16   ar
    19    16    17   ar
    20    16    18    1
    21    18    19   am
    22    19    20    2
    23    19    21    1
    24    21    22    1
    25     4     5    1
    26     5     6    1
    27     4     7    1
    28     7     8    1
    29    29    30   ar
    30    30    31    1
    31    30    32   ar
    32    32    33   ar
    33    33    34   ar
    34    34    35   ar
    35    35    36   ar
    36    36    37    1
    37    36    26   ar
    38    34    28   ar
    39     6     1    1
    40     8     1    1
    41    17    12   ar
    42    22    15    1
    43     9    10    1
    44    18    23    1
@<TRIPOS>MOLECULE
*****
 39 44 0 0 0
SMALL
GASTEIGER

@<TRIPOS>ATOM
      1 C         144.4765  139.9543  163.5275 C.3     1  UNL1        0.0932
      2 C         144.0535  139.7974  162.0970 C.3     1  UNL1        0.0286
      3 C         142.9401  138.8568  161.7429 C.3     1  UNL1        0.0193
      4 C         142.2496  138.0730  162.8195 C.3     1  UNL1        0.0700
      5 C         142.6725  138.2299  164.2500 C.3     1  UNL1        0.0193
      6 C         143.7860  139.1706  164.6040 C.3     1  UNL1        0.0286
      7 C         142.8544  138.5762  163.0621 C.3     1  UNL1        0.1562
      8 O         143.8612  139.4268  163.3823 O.3     1  UNL1       -0.3572
      9 N         141.1361  137.1323  162.4654 N.3     1  UNL1       -0.2926
     10 H         141.2588  136.3004  163.0427 H       1  UNL1        0.1236
     11 C         139.7090  137.5649  162.6269 C.3     1  UNL1        0.1152
     12 C         139.3231  138.9904  162.3645 C.ar    1  UNL1        0.0765
     13 C         139.3238  139.5215  160.9616 C.ar    1  UNL1        0.0193
     14 C         138.9379  140.9471  160.6992 C.ar    1  UNL1        0.0411
     15 C         138.5512  141.8415  161.8396 C.ar    1  UNL1        0.1708
     16 C         138.5505  141.3104  163.2424 C.ar    1  UNL1        0.1682
     17 N         138.9364  139.8848  163.5049 N.ar    1  UNL1       -0.2304
     18 N         138.1638  142.2049  164.3827 N.am    1  UNL1       -0.2639
     19 C         137.7779  143.6304  164.1203 C.2     1  UNL1        0.2718
     20 O         137.3913  144.5248  165.2607 O.2     1  UNL1       -0.2707
     21 C         137.7787  144.1616  162.7174 C.3     1  UNL1        0.2898
     22 O         138.1653  143.2671  161.5771 O.3     1  UNL1       -0.4628
     23 H         138.1633  141.8563  165.3035 H       1  UNL1        0.1565
     24 C         145.5899  140.8950  163.8815 C.3     1  UNL1        0.0320
     25 C         145.2762  142.2661  164.4030 C.3     1  UNL1        0.0327
     26 C         142.4057  141.7969  167.8366 C.ar    1  UNL1        0.2534
     27 N         143.3625  141.9533  166.6921 N.ar    1  UNL1       -0.2085
     28 C         142.9252  142.6525  165.4391 C.ar    1  UNL1        0.1003
     29 C         143.8821  142.8089  164.2946 C.ar    1  UNL1        0.0261
     30 C         143.4449  143.5081  163.0416 C.ar    1  UNL1        0.1566
     31 F         144.4017  143.6645  161.8971 F       1  UNL1       -0.2028
     32 C         142.0507  144.0509  162.9332 C.ar    1  UNL1        0.1281
     33 N         141.0938  143.8945  164.0777 N.ar    1  UNL1       -0.2399
     34 C         141.5311  143.1953  165.3307 C.ar    1  UNL1        0.1012
     35 C         140.5743  143.0389  166.4752 C.ar    1  UNL1        0.0551
     36 C         141.0116  142.3397  167.7282 C.ar    1  UNL1        0.1945
     37 F         140.0547  142.1833  168.8727 F       1  UNL1       -0.1992
     38 C         142.5155  139.6480  169.2927 C.3     1  UNL1        0.2543
     39 O         142.8429  141.0976  169.0895 O.3     1  UNL1       -0.4546
@<TRIPOS>BOND
     1    38    39    1
     2    39    26    1
     3    26    27   ar
     4    27    28   ar
     5    28    29   ar
     6    29    25    1
     7    25    24    1
     8    24     1    1
     9     1     2    1
    10     2     3    1
    11     3     4    1
    12     4     9    1
    13     9    11    1
    14    11    12    1
    15    12    13   ar
    16    13    14   ar
    17    14    15   ar
    18    15    16   ar
    19    16    17   ar
    20    16    18    1
    21    18    19   am
    22    19    20    2
    23    19    21    1
    24    21    22    1
    25     4     5    1
    26     5     6    1
    27     4     7    1
    28     7     8    1
    29    29    30   ar
    30    30    31    1
    31    30    32   ar
    32    32    33   ar
    33    33    34   ar
    34    34    35   ar
    35    35    36   ar
    36    36    37    1
    37    36    26   ar
    38    34    28   ar
    39     6     1    1
    40     8     1    1
    41    17    12   ar
    42    22    15    1
    43     9    10    1
    44    18    23    1
@<TRIPOS>MOLECULE
*****
 39 44 0 0 0
SMALL
GASTEIGER

@<TRIPOS>ATOM
      1 C         138.3796  139.3837  164.0100 C.3     1  UNL1        0.0932
      2 C         138.2245  140.5153  164.9824 C.3     1  UNL1        0.0286
      3 C         137.8778  141.8879  164.4867 C.3     1  UNL1        0.0193
      4 C         137.6863  142.1290  163.0186 C.3     1  UNL1        0.0700
      5 C         137.8414  140.9975  162.0462 C.3     1  UNL1        0.0193
      6 C         138.1881  139.6248  162.5420 C.3     1  UNL1        0.0286
      7 C         137.8755  141.3597  163.2428 C.3     1  UNL1        0.1562
      8 O         138.1890  140.1185  163.6910 O.3     1  UNL1       -0.3572
      9 N         137.3396  143.5016  162.5229 N.3     1  UNL1       -0.2926
     10 H         136.4647  143.7660  162.9758 H       1  UNL1        0.1236
     11 C         138.2960  144.6382  162.7318 C.3     1  UNL1        0.1152
     12 C         139.7749  144.3916  162.6882 C.ar    1  UNL1        0.0765
     13 C         140.6354  144.7841  163.8525 C.ar    1  UNL1        0.0193
     14 C         142.1143  144.5376  163.8089 C.ar    1  UNL1        0.0411
     15 C         142.7328  143.8985  162.6010 C.ar    1  UNL1        0.1708
     16 C         141.8724  143.5060  161.4367 C.ar    1  UNL1        0.1682
     17 N         140.3934  143.7525  161.4803 N.ar    1  UNL1       -0.2304
     18 N         142.4909  142.8669  160.2288 N.am    1  UNL1       -0.2639
     19 C         143.9698  142.6203  160.1851 C.2     1  UNL1        0.2718
     20 O         144.5883  141.9813  158.9772 O.2     1  UNL1       -0.2707
     21 C         144.8303  143.0129  161.3494 C.3     1  UNL1        0.2898
     22 O         144.2118  143.6519  162.5574 O.3     1  UNL1       -0.4628
     23 H         141.9262  142.6093  159.4646 H       1  UNL1        0.1565
     24 C         138.7262  138.0111  164.5057 C.3     1  UNL1        0.0320
     25 C         140.1623  137.6261  164.7050 C.3     1  UNL1        0.0327
     26 C         141.8457  140.7486  167.4738 C.ar    1  UNL1        0.2534
     27 N         141.2846  139.7078  166.5509 N.ar    1  UNL1       -0.2085
     28 C         141.8169  139.5782  165.1545 C.ar    1  UNL1        0.1003
     29 C         141.2557  138.5373  164.2315 C.ar    1  UNL1        0.0261
     30 C         141.7880  138.4077  162.8352 C.ar    1  UNL1        0.1566
     31 F         141.2269  137.3669  161.9122 F       1  UNL1       -0.2028
     32 C         142.8814  139.3189  162.3617 C.ar    1  UNL1        0.1281
     33 N         143.4426  140.3597  163.2847 N.ar    1  UNL1       -0.2399
     34 C         142.9103  140.4893  164.6810 C.ar    1  UNL1        0.1012
     35 C         143.4714  141.5301  165.6040 C.ar    1  UNL1        0.0551
     36 C         142.9391  141.6598  167.0003 C.ar    1  UNL1        0.1945
     37 F         143.5003  142.7006  167.9233 F       1  UNL1       -0.1992
     38 C         140.0349  140.1931  169.2521 C.3     1  UNL1        0.2543
     39 O         141.3134  140.8782  168.8702 O.3     1  UNL1       -0.4546
@<TRIPOS>BOND
     1    38    39    1
     2    39    26    1
     3    26    27   ar
     4    27    28   ar
     5    28    29   ar
     6    29    25    1
     7    25    24    1
     8    24     1    1
     9     1     2    1
    10     2     3    1
    11     3     4    1
    12     4     9    1
    13     9    11    1
    14    11    12    1
    15    12    13   ar
    16    13    14   ar
    17    14    15   ar
    18    15    16   ar
    19    16    17   ar
    20    16    18    1
    21    18    19   am
    22    19    20    2
    23    19    21    1
    24    21    22    1
    25     4     5    1
    26     5     6    1
    27     4     7    1
    28     7     8    1
    29    29    30   ar
    30    30    31    1
    31    30    32   ar
    32    32    33   ar
    33    33    34   ar
    34    34    35   ar
    35    35    36   ar
    36    36    37    1
    37    36    26   ar
    38    34    28   ar
    39     6     1    1
    40     8     1    1
    41    17    12   ar
    42    22    15    1
    43     9    10    1
    44    18    23    1
@<TRIPOS>MOLECULE
*****
 39 44 0 0 0
SMALL
GASTEIGER

@<TRIPOS>ATOM
      1 C         139.6142  137.8042  164.3541 C.3     1  UNL1        0.0932
      2 C         139.2560  137.8940  162.9003 C.3     1  UNL1        0.0286
      3 C         140.3315  137.8238  161.8571 C.3     1  UNL1        0.0193
      4 C         141.7654  137.6638  162.2677 C.3     1  UNL1        0.0700
      5 C         142.1236  137.5741  163.7216 C.3     1  UNL1        0.0193
      6 C         141.0479  137.6443  164.7648 C.3     1  UNL1        0.0286
      7 C         141.2109  137.6974  162.8755 C.3     1  UNL1        0.1562
      8 O         140.2383  137.7609  163.8188 O.3     1  UNL1       -0.3572
      9 N         142.8409  137.5937  161.2246 N.3     1  UNL1       -0.2926
     10 H         142.5063  136.9599  160.4988 H       1  UNL1        0.1236
     11 C         143.2964  138.8436  160.5316 C.3     1  UNL1        0.1152
     12 C         143.4362  140.1213  161.3048 C.ar    1  UNL1        0.0765
     13 C         144.5863  140.3038  162.2503 C.ar    1  UNL1        0.0193
     14 C         144.7261  141.5816  163.0235 C.ar    1  UNL1        0.0411
     15 C         143.7158  142.6768  162.8512 C.ar    1  UNL1        0.1708
     16 C         142.5657  142.4944  161.9057 C.ar    1  UNL1        0.1682
     17 N         142.4259  141.2166  161.1325 N.ar    1  UNL1       -0.2304
     18 N         141.5554  143.5896  161.7334 N.am    1  UNL1       -0.2639
     19 C         141.6952  144.8674  162.5066 C.2     1  UNL1        0.2718
     20 O         140.6849  145.9626  162.3343 O.2     1  UNL1       -0.2707
     21 C         142.8453  145.0499  163.4521 C.3     1  UNL1        0.2898
     22 O         143.8556  143.9546  163.6244 O.3     1  UNL1       -0.4628
     23 H         140.8006  143.4699  161.1129 H       1  UNL1        0.1565
     24 C         138.5386  137.8744  165.3972 C.3     1  UNL1        0.0320
     25 C         138.1822  139.1919  166.0196 C.3     1  UNL1        0.0327
     26 C         141.9109  140.7480  168.0007 C.ar    1  UNL1        0.2534
     27 N         140.6680  140.2293  167.3404 N.ar    1  UNL1       -0.2085
     28 C         140.0671  140.9724  166.1842 C.ar    1  UNL1        0.1003
     29 C         138.8241  140.4537  165.5238 C.ar    1  UNL1        0.0261
     30 C         138.2232  141.1968  164.3677 C.ar    1  UNL1        0.1566
     31 F         136.9803  140.6781  163.7073 F       1  UNL1       -0.2028
     32 C         138.8652  142.4586  163.8719 C.ar    1  UNL1        0.1281
     33 N         140.1081  142.9773  164.5323 N.ar    1  UNL1       -0.2399
     34 C         140.7090  142.2342  165.6885 C.ar    1  UNL1        0.1012
     35 C         141.9519  142.7528  166.3488 C.ar    1  UNL1        0.0551
     36 C         142.5529  142.0097  167.5050 C.ar    1  UNL1        0.1945
     37 F         143.7958  142.5285  168.1654 F       1  UNL1       -0.1992
     38 C         141.6269  139.4508  170.2338 C.3     1  UNL1        0.2543
     39 O         142.5119  140.0049  169.1569 O.3     1  UNL1       -0.4546
@<TRIPOS>BOND
     1    38    39    1
     2    39    26    1
     3    26    27   ar
     4    27    28   ar
     5    28    29   ar
     6    29    25    1
     7    25    24    1
     8    24     1    1
     9     1     2    1
    10     2     3    1
    11     3     4    1
    12     4     9    1
    13     9    11    1
    14    11    12    1
    15    12    13   ar
    16    13    14   ar
    17    14    15   ar
    18    15    16   ar
    19    16    17   ar
    20    16    18    1
    21    18    19   am
    22    19    20    2
    23    19    21    1
    24    21    22    1
    25     4     5    1
    26     5     6    1
    27     4     7    1
    28     7     8    1
    29    29    30   ar
    30    30    31    1
    31    30    32   ar
    32    32    33   ar
    33    33    34   ar
    34    34    35   ar
    35    35    36   ar
    36    36    37    1
    37    36    26   ar
    38    34    28   ar
    39     6     1    1
    40     8     1    1
    41    17    12   ar
    42    22    15    1
    43     9    10    1
    44    18    23    1
@<TRIPOS>MOLECULE
*****
 39 44 0 0 0
SMALL
GASTEIGER

@<TRIPOS>ATOM
      1 C         137.9801  143.0634  163.5251 C.3     1  UNL1        0.0932
      2 C         138.0918  143.0131  162.0301 C.3     1  UNL1        0.0286
      3 C         137.9346  141.7069  161.3098 C.3     1  UNL1        0.0193
      4 C         137.6656  140.4508  162.0844 C.3     1  UNL1        0.0700
      5 C         137.5539  140.5011  163.5794 C.3     1  UNL1        0.0193
      6 C         137.7112  141.8074  164.2997 C.3     1  UNL1        0.0286
      7 C         137.7444  141.1431  162.5231 C.3     1  UNL1        0.1562
      8 O         137.8866  142.3242  163.1745 O.3     1  UNL1       -0.3572
      9 N         137.5083  139.1446  161.3641 N.3     1  UNL1       -0.2926
     10 H         137.6154  139.3422  160.3692 H       1  UNL1        0.1236
     11 C         138.4243  137.9993  161.6791 C.3     1  UNL1        0.1152
     12 C         139.8379  138.2647  162.1047 C.ar    1  UNL1        0.0765
     13 C         140.8481  138.7344  161.1001 C.ar    1  UNL1        0.0193
     14 C         142.2617  138.9998  161.5258 C.ar    1  UNL1        0.0411
     15 C         142.6652  138.7957  162.9560 C.ar    1  UNL1        0.1708
     16 C         141.6552  138.3261  163.9605 C.ar    1  UNL1        0.1682
     17 N         140.2415  138.0606  163.5349 N.ar    1  UNL1       -0.2304
     18 N         142.0587  138.1219  165.3908 N.am    1  UNL1       -0.2639
     19 C         143.4723  138.3874  165.8164 C.2     1  UNL1        0.2718
     20 O         143.8759  138.1832  167.2466 O.2     1  UNL1       -0.2707
     21 C         144.4825  138.8570  164.8118 C.3     1  UNL1        0.2898
     22 O         144.0789  139.0611  163.3816 O.3     1  UNL1       -0.4628
     23 H         141.3957  137.8137  166.0501 H       1  UNL1        0.1565
     24 C         138.1374  144.3696  164.2454 C.3     1  UNL1        0.0320
     25 C         139.4942  144.8136  164.7060 C.3     1  UNL1        0.0327
     26 C         142.1858  144.2182  161.1491 C.ar    1  UNL1        0.2534
     27 N         141.2886  144.4166  162.3347 N.ar    1  UNL1       -0.2085
     28 C         141.5196  143.6290  163.5902 C.ar    1  UNL1        0.1003
     29 C         140.6223  143.8275  164.7759 C.ar    1  UNL1        0.0261
     30 C         140.8533  143.0398  166.0313 C.ar    1  UNL1        0.1566
     31 F         139.9561  143.2383  167.2169 F       1  UNL1       -0.2028
     32 C         141.9814  142.0536  166.1012 C.ar    1  UNL1        0.1281
     33 N         142.8786  141.8552  164.9156 N.ar    1  UNL1       -0.2399
     34 C         142.6477  142.6428  163.6601 C.ar    1  UNL1        0.1012
     35 C         143.5448  142.4444  162.4745 C.ar    1  UNL1        0.0551
     36 C         143.3139  143.2320  161.2190 C.ar    1  UNL1        0.1945
     37 F         144.2111  143.0335  160.0334 F       1  UNL1       -0.1992
     38 C         140.5564  145.3254  159.4553 C.3     1  UNL1        0.2543
     39 O         141.9548  145.0058  159.8936 O.3     1  UNL1       -0.4546
@<TRIPOS>BOND
     1    38    39    1
     2    39    26    1
     3    26    27   ar
     4    27    28   ar
     5    28    29   ar
     6    29    25    1
     7    25    24    1
     8    24     1    1
     9     1     2    1
    10     2     3    1
    11     3     4    1
    12     4     9    1
    13     9    11    1
    14    11    12    1
    15    12    13   ar
    16    13    14   ar
    17    14    15   ar
    18    15    16   ar
    19    16    17   ar
    20    16    18    1
    21    18    19   am
    22    19    20    2
    23    19    21    1
    24    21    22    1
    25     4     5    1
    26     5     6    1
    27     4     7    1
    28     7     8    1
    29    29    30   ar
    30    30    31    1
    31    30    32   ar
    32    32    33   ar
    33    33    34   ar
    34    34    35   ar
    35    35    36   ar
    36    36    37    1
    37    36    26   ar
    38    34    28   ar
    39     6     1    1
    40     8     1    1
    41    17    12   ar
    42    22    15    1
    43     9    10    1
    44    18    23    1
