@<TRIPOS>MOLECULE
*****
 32 35 0 0 0
SMALL
GASTEIGER

@<TRIPOS>ATOM
      1 C         140.5851  140.2940  165.2111 C.ar    1  UNL1        0.0576
      2 C         141.6438  139.9678  164.1999 C.ar    1  UNL1        0.0386
      3 C         142.9750  139.4434  164.6504 C.ar    1  UNL1        0.1286
      4 N         143.2475  139.2454  166.1120 N.ar    1  UNL1       -0.2309
      5 C         142.1887  139.5716  167.1233 C.ar    1  UNL1        0.0829
      6 C         142.4612  139.3735  168.5850 C.ar    1  UNL1        0.0200
      7 C         141.4025  139.6998  169.5961 C.ar    1  UNL1        0.0129
      8 C         140.0712  140.2241  169.1457 C.ar    1  UNL1        0.0578
      9 CL        139.0124  140.5503  170.1570 Cl      1  UNL1       -0.0822
     10 C         139.7988  140.4222  167.6840 C.ar    1  UNL1        0.0130
     11 C         140.8575  140.0959  166.6728 C.ar    1  UNL1        0.0230
     12 O         138.0694  139.9002  164.6950 O.2     1  UNL1       -0.2701
     13 C         139.2538  140.8183  164.7606 C.2     1  UNL1        0.2460
     14 N         139.1070  142.2607  164.3759 N.am    1  UNL1       -0.2994
     15 H         139.8844  142.8632  164.4190 H       1  UNL1        0.1498
     16 C         137.7758  142.7850  163.9254 C.3     1  UNL1        0.1070
     17 C         137.7004  144.0507  163.1239 C.3     1  UNL1        0.0936
     18 N         138.7730  144.3711  162.1254 N.3     1  UNL1       -0.2712
     19 C         139.2490  143.4715  161.0235 C.3     1  UNL1        0.0722
     20 C         140.3281  144.1917  160.2706 C.3     1  UNL1        0.0188
     21 C         140.5190  145.5365  160.9071 C.3     1  UNL1        0.0188
     22 C         139.5579  145.6474  162.0535 C.3     1  UNL1        0.0722
     23 N         144.0338  139.1172  163.6391 N.pl3   1  UNL1       -0.3181
     24 H         144.5552  138.2863  163.7228 H       1  UNL1        0.1482
     25 C         144.2982  140.0569  162.5002 C.3     1  UNL1        0.0882
     26 C         145.2636  141.1918  162.6731 C.3     1  UNL1        0.0214
     27 C         144.7996  142.4867  163.2714 C.3     1  UNL1        0.0067
     28 C         144.8508  142.6874  164.7571 C.3     1  UNL1        0.0322
     29 C         144.3869  143.9822  165.3555 C.3     1  UNL1        0.1422
     30 O         143.8717  145.0764  164.4682 O.3     1  UNL1       -0.3538
     31 C         143.8204  144.8757  162.9826 C.3     1  UNL1        0.1422
     32 C         144.2844  143.5809  162.3842 C.3     1  UNL1        0.0322
@<TRIPOS>BOND
     1    12    13    2
     2    13    14   am
     3    14    16    1
     4    16    17    1
     5    17    18    1
     6    18    19    1
     7    19    20    1
     8    20    21    1
     9    21    22    1
    10    13     1    1
    11     1     2   ar
    12     2     3   ar
    13     3    23    1
    14    23    25    1
    15    25    26    1
    16    26    27    1
    17    27    28    1
    18    28    29    1
    19    29    30    1
    20    30    31    1
    21    31    32    1
    22     3     4   ar
    23     4     5   ar
    24     5     6   ar
    25     6     7   ar
    26     7     8   ar
    27     8     9    1
    28     8    10   ar
    29    10    11   ar
    30    22    18    1
    31    11     1   ar
    32    32    27    1
    33    11     5   ar
    34    14    15    1
    35    23    24    1
@<TRIPOS>MOLECULE
*****
 32 35 0 0 0
SMALL
GASTEIGER

@<TRIPOS>ATOM
      1 C         141.5924  138.8556  164.9736 C.ar    1  UNL1        0.0576
      2 C         140.8820  138.2684  163.7902 C.ar    1  UNL1        0.0386
      3 C         139.3940  138.0822  163.8253 C.ar    1  UNL1        0.1286
      4 N         138.6164  138.4832  165.0437 N.ar    1  UNL1       -0.2309
      5 C         139.3269  139.0704  166.2271 C.ar    1  UNL1        0.0829
      6 C         138.5493  139.4714  167.4455 C.ar    1  UNL1        0.0200
      7 C         139.2597  140.0586  168.6289 C.ar    1  UNL1        0.0129
      8 C         140.7477  140.2448  168.5939 C.ar    1  UNL1        0.0578
      9 CL        141.4582  140.8321  169.7774 Cl      1  UNL1       -0.0822
     10 C         141.5253  139.8438  167.3755 C.ar    1  UNL1        0.0130
     11 C         140.8149  139.2566  166.1921 C.ar    1  UNL1        0.0230
     12 O         143.9587  138.2363  165.8496 O.2     1  UNL1       -0.2701
     13 C         143.0804  139.0418  164.9386 C.2     1  UNL1        0.2460
     14 N         143.6901  140.0334  163.9926 N.am    1  UNL1       -0.2994
     15 H         143.1137  140.5620  163.3947 H       1  UNL1        0.1498
     16 C         145.1781  140.2195  163.9576 C.3     1  UNL1        0.1070
     17 C         145.7591  141.5434  163.5575 C.3     1  UNL1        0.0936
     18 N         144.9014  142.7738  163.5715 N.3     1  UNL1       -0.2712
     19 C         144.4133  143.5222  162.3666 C.3     1  UNL1        0.0722
     20 C         143.5914  144.6829  162.8432 C.3     1  UNL1        0.0188
     21 C         143.5714  144.6519  164.3428 C.3     1  UNL1        0.0188
     22 C         144.3810  143.4721  164.7929 C.3     1  UNL1        0.0722
     23 N         138.6836  137.4950  162.6418 N.pl3   1  UNL1       -0.3181
     24 H         138.7821  136.5378  162.4337 H       1  UNL1        0.1482
     25 C         137.8231  138.3661  161.7754 C.3     1  UNL1        0.0882
     26 C         138.3646  139.6575  161.2378 C.3     1  UNL1        0.0214
     27 C         138.5773  140.8227  162.1582 C.3     1  UNL1        0.0067
     28 C         139.8954  141.5386  162.1695 C.3     1  UNL1        0.0322
     29 C         140.1083  142.7037  163.0899 C.3     1  UNL1        0.1422
     30 O         139.0030  143.1530  163.9989 O.3     1  UNL1       -0.3538
     31 C         137.6849  142.4371  163.9877 C.3     1  UNL1        0.1422
     32 C         137.4721  141.2719  163.0673 C.3     1  UNL1        0.0322
@<TRIPOS>BOND
     1    12    13    2
     2    13    14   am
     3    14    16    1
     4    16    17    1
     5    17    18    1
     6    18    19    1
     7    19    20    1
     8    20    21    1
     9    21    22    1
    10    13     1    1
    11     1     2   ar
    12     2     3   ar
    13     3    23    1
    14    23    25    1
    15    25    26    1
    16    26    27    1
    17    27    28    1
    18    28    29    1
    19    29    30    1
    20    30    31    1
    21    31    32    1
    22     3     4   ar
    23     4     5   ar
    24     5     6   ar
    25     6     7   ar
    26     7     8   ar
    27     8     9    1
    28     8    10   ar
    29    10    11   ar
    30    22    18    1
    31    11     1   ar
    32    32    27    1
    33    11     5   ar
    34    14    15    1
    35    23    24    1
@<TRIPOS>MOLECULE
*****
 32 35 0 0 0
SMALL
GASTEIGER

@<TRIPOS>ATOM
      1 C         140.2347  141.9506  165.1251 C.ar    1  UNL1        0.0576
      2 C         139.7689  140.8966  164.1648 C.ar    1  UNL1        0.0386
      3 C         139.1944  139.6114  164.6826 C.ar    1  UNL1        0.1286
      4 N         139.0856  139.3801  166.1606 N.ar    1  UNL1       -0.2309
      5 C         139.5514  140.4341  167.1210 C.ar    1  UNL1        0.0829
      6 C         139.4426  140.2028  168.5990 C.ar    1  UNL1        0.0200
      7 C         139.9084  141.2568  169.5593 C.ar    1  UNL1        0.0129
      8 C         140.4830  142.5420  169.0416 C.ar    1  UNL1        0.0578
      9 CL        140.9487  143.5960  170.0019 Cl      1  UNL1       -0.0822
     10 C         140.5917  142.7733  167.5635 C.ar    1  UNL1        0.0130
     11 C         140.1260  141.7193  166.6033 C.ar    1  UNL1        0.0230
     12 O         139.8977  144.3610  164.2161 O.2     1  UNL1       -0.2701
     13 C         140.8093  143.2358  164.6074 C.2     1  UNL1        0.2460
     14 N         142.2953  143.3958  164.4809 N.am    1  UNL1       -0.2994
     15 H         142.8936  142.6573  164.7377 H       1  UNL1        0.1498
     16 C         142.8699  144.6811  163.9632 C.3     1  UNL1        0.1070
     17 C         143.8928  144.6572  162.8662 C.3     1  UNL1        0.0936
     18 N         143.7059  143.7502  161.6861 N.3     1  UNL1       -0.2712
     19 C         142.5044  143.7064  160.7893 C.3     1  UNL1        0.0722
     20 C         142.7437  142.6569  159.7446 C.3     1  UNL1        0.0188
     21 C         144.0932  142.0521  159.9958 C.3     1  UNL1        0.0188
     22 C         144.6879  142.7278  161.1958 C.3     1  UNL1        0.0722
     23 N         138.7286  138.5574  163.7222 N.pl3   1  UNL1       -0.3181
     24 H         137.7755  138.4957  163.4834 H       1  UNL1        0.1482
     25 C         139.7149  137.5976  163.1257 C.3     1  UNL1        0.0882
     26 C         140.9364  137.1997  163.9000 C.3     1  UNL1        0.0214
     27 C         142.1925  138.0121  163.7888 C.3     1  UNL1        0.0067
     28 C         142.8077  138.2616  162.4437 C.3     1  UNL1        0.0322
     29 C         144.0637  139.0739  162.3324 C.3     1  UNL1        0.1422
     30 O         144.7047  139.6367  163.5663 O.3     1  UNL1       -0.3538
     31 C         144.0895  139.3872  164.9114 C.3     1  UNL1        0.1422
     32 C         142.8335  138.5749  165.0227 C.3     1  UNL1        0.0322
@<TRIPOS>BOND
     1    12    13    2
     2    13    14   am
     3    14    16    1
     4    16    17    1
     5    17    18    1
     6    18    19    1
     7    19    20    1
     8    20    21    1
     9    21    22    1
    10    13     1    1
    11     1     2   ar
    12     2     3   ar
    13     3    23    1
    14    23    25    1
    15    25    26    1
    16    26    27    1
    17    27    28    1
    18    28    29    1
    19    29    30    1
    20    30    31    1
    21    31    32    1
    22     3     4   ar
    23     4     5   ar
    24     5     6   ar
    25     6     7   ar
    26     7     8   ar
    27     8     9    1
    28     8    10   ar
    29    10    11   ar
    30    22    18    1
    31    11     1   ar
    32    32    27    1
    33    11     5   ar
    34    14    15    1
    35    23    24    1
@<TRIPOS>MOLECULE
*****
 32 35 0 0 0
SMALL
GASTEIGER

@<TRIPOS>ATOM
      1 C         141.7979  141.6317  161.3261 C.ar    1  UNL1        0.0576
      2 C         141.2891  142.9062  160.7205 C.ar    1  UNL1        0.0386
      3 C         141.9782  144.2051  161.0173 C.ar    1  UNL1        0.1286
      4 N         143.1761  144.2295  161.9198 N.ar    1  UNL1       -0.2309
      5 C         143.6849  142.9550  162.5255 C.ar    1  UNL1        0.0829
      6 C         144.8828  142.9794  163.4280 C.ar    1  UNL1        0.0200
      7 C         145.3916  141.7050  164.0336 C.ar    1  UNL1        0.0129
      8 C         144.7025  140.4061  163.7368 C.ar    1  UNL1        0.0578
      9 CL        145.2114  139.1316  164.3425 Cl      1  UNL1       -0.0822
     10 C         143.5046  140.3817  162.8343 C.ar    1  UNL1        0.0130
     11 C         142.9959  141.6561  162.2287 C.ar    1  UNL1        0.0230
     12 O         141.8952  139.1709  160.4985 O.2     1  UNL1       -0.2701
     13 C         141.1089  140.3328  161.0293 C.2     1  UNL1        0.2460
     14 N         139.6336  140.1959  161.2633 N.am    1  UNL1       -0.2994
     15 H         139.1176  140.9585  161.6117 H       1  UNL1        0.1498
     16 C         138.9445  138.8970  160.9665 C.3     1  UNL1        0.1070
     17 C         138.8282  137.8488  162.0332 C.3     1  UNL1        0.0936
     18 N         139.7250  137.8986  163.2346 N.3     1  UNL1       -0.2712
     19 C         139.4214  138.5842  164.5337 C.3     1  UNL1        0.0722
     20 C         140.5916  138.3808  165.4498 C.3     1  UNL1        0.0188
     21 C         141.6185  137.5695  164.7168 C.3     1  UNL1        0.0188
     22 C         141.0829  137.2714  163.3477 C.3     1  UNL1        0.0722
     23 N         141.4693  145.4795  160.4116 N.pl3   1  UNL1       -0.3181
     24 H         142.0587  146.0224  159.8396 H       1  UNL1        0.1482
     25 C         140.0626  145.9269  160.6775 C.3     1  UNL1        0.0882
     26 C         139.6004  146.1505  162.0869 C.3     1  UNL1        0.0214
     27 C         139.1948  144.9832  162.9372 C.3     1  UNL1        0.0067
     28 C         138.1304  144.0407  162.4588 C.3     1  UNL1        0.0322
     29 C         137.7248  142.8735  163.3090 C.3     1  UNL1        0.1422
     30 O         138.3835  142.6487  164.6377 O.3     1  UNL1       -0.3538
     31 C         139.4479  143.5912  165.1162 C.3     1  UNL1        0.1422
     32 C         139.8535  144.7584  164.2659 C.3     1  UNL1        0.0322
@<TRIPOS>BOND
     1    12    13    2
     2    13    14   am
     3    14    16    1
     4    16    17    1
     5    17    18    1
     6    18    19    1
     7    19    20    1
     8    20    21    1
     9    21    22    1
    10    13     1    1
    11     1     2   ar
    12     2     3   ar
    13     3    23    1
    14    23    25    1
    15    25    26    1
    16    26    27    1
    17    27    28    1
    18    28    29    1
    19    29    30    1
    20    30    31    1
    21    31    32    1
    22     3     4   ar
    23     4     5   ar
    24     5     6   ar
    25     6     7   ar
    26     7     8   ar
    27     8     9    1
    28     8    10   ar
    29    10    11   ar
    30    22    18    1
    31    11     1   ar
    32    32    27    1
    33    11     5   ar
    34    14    15    1
    35    23    24    1
@<TRIPOS>MOLECULE
*****
 32 35 0 0 0
SMALL
GASTEIGER

@<TRIPOS>ATOM
      1 C         138.8594  140.3320  161.2930 C.ar    1  UNL1        0.0576
      2 C         138.4778  141.4978  162.1563 C.ar    1  UNL1        0.0386
      3 C         138.1382  142.8169  161.5280 C.ar    1  UNL1        0.1286
      4 N         138.1803  142.9702  160.0365 N.ar    1  UNL1       -0.2309
      5 C         138.5619  141.8044  159.1731 C.ar    1  UNL1        0.0829
      6 C         138.6040  141.9577  157.6816 C.ar    1  UNL1        0.0200
      7 C         138.9855  140.7919  156.8184 C.ar    1  UNL1        0.0129
      8 C         139.3251  139.4728  157.4466 C.ar    1  UNL1        0.0578
      9 CL        139.7067  138.3070  156.5833 Cl      1  UNL1       -0.0822
     10 C         139.2830  139.3195  158.9382 C.ar    1  UNL1        0.0130
     11 C         138.9014  140.4853  159.8014 C.ar    1  UNL1        0.0230
     12 O         138.1267  137.9860  162.1353 O.2     1  UNL1       -0.2701
     13 C         139.1989  139.0130  161.9213 C.2     1  UNL1        0.2460
     14 N         140.6106  138.7208  162.3355 N.am    1  UNL1       -0.2994
     15 H         141.3144  139.3948  162.1951 H       1  UNL1        0.1498
     16 C         140.9502  137.4017  162.9638 C.3     1  UNL1        0.1070
     17 C         140.9600  137.2627  164.4574 C.3     1  UNL1        0.0936
     18 N         140.0457  138.1067  165.2951 N.3     1  UNL1       -0.2712
     19 C         140.4160  139.3815  165.9936 C.3     1  UNL1        0.0722
     20 C         139.1998  139.8867  166.7117 C.3     1  UNL1        0.0188
     21 C         138.0778  138.9242  166.4570 C.3     1  UNL1        0.0188
     22 C         138.6006  137.8241  165.5815 C.3     1  UNL1        0.0722
     23 N         137.7566  143.9828  162.3913 N.pl3   1  UNL1       -0.3181
     24 H         137.5288  144.8471  161.9787 H       1  UNL1        0.1482
     25 C         137.7221  143.8316  163.8833 C.3     1  UNL1        0.0882
     26 C         138.7037  144.5797  164.7358 C.3     1  UNL1        0.0214
     27 C         140.1613  144.2292  164.6847 C.3     1  UNL1        0.0067
     28 C         140.6931  143.1083  165.5278 C.3     1  UNL1        0.0322
     29 C         142.1506  142.7578  165.4767 C.3     1  UNL1        0.1422
     30 O         143.0764  143.5281  164.5826 O.3     1  UNL1       -0.3538
     31 C         142.5446  144.6490  163.7395 C.3     1  UNL1        0.1422
     32 C         141.0870  144.9995  163.7906 C.3     1  UNL1        0.0322
@<TRIPOS>BOND
     1    12    13    2
     2    13    14   am
     3    14    16    1
     4    16    17    1
     5    17    18    1
     6    18    19    1
     7    19    20    1
     8    20    21    1
     9    21    22    1
    10    13     1    1
    11     1     2   ar
    12     2     3   ar
    13     3    23    1
    14    23    25    1
    15    25    26    1
    16    26    27    1
    17    27    28    1
    18    28    29    1
    19    29    30    1
    20    30    31    1
    21    31    32    1
    22     3     4   ar
    23     4     5   ar
    24     5     6   ar
    25     6     7   ar
    26     7     8   ar
    27     8     9    1
    28     8    10   ar
    29    10    11   ar
    30    22    18    1
    31    11     1   ar
    32    32    27    1
    33    11     5   ar
    34    14    15    1
    35    23    24    1
@<TRIPOS>MOLECULE
*****
 32 35 0 0 0
SMALL
GASTEIGER

@<TRIPOS>ATOM
      1 C         142.7404  140.6130  165.0650 C.ar    1  UNL1        0.0576
      2 C         143.1757  141.6778  164.1024 C.ar    1  UNL1        0.0386
      3 C         143.7131  142.9802  164.6173 C.ar    1  UNL1        0.1286
      4 N         143.8152  143.2177  166.0948 N.ar    1  UNL1       -0.2309
      5 C         143.3798  142.1529  167.0575 C.ar    1  UNL1        0.0829
      6 C         143.4819  142.3905  168.5350 C.ar    1  UNL1        0.0200
      7 C         143.0466  141.3257  169.4977 C.ar    1  UNL1        0.0129
      8 C         142.5092  140.0234  168.9828 C.ar    1  UNL1        0.0578
      9 CL        142.0739  138.9586  169.9455 Cl      1  UNL1       -0.0822
     10 C         142.4071  139.7858  167.5053 C.ar    1  UNL1        0.0130
     11 C         142.8424  140.8506  166.5427 C.ar    1  UNL1        0.0230
     12 O         142.4855  138.0374  165.2911 O.2     1  UNL1       -0.2701
     13 C         142.2030  139.3107  164.5502 C.2     1  UNL1        0.2460
     14 N         141.3831  139.2816  163.2944 N.am    1  UNL1       -0.2994
     15 H         141.1977  140.1173  162.8081 H       1  UNL1        0.1498
     16 C         140.8457  137.9793  162.7795 C.3     1  UNL1        0.1070
     17 C         139.4820  137.5136  163.1959 C.3     1  UNL1        0.0936
     18 N         138.8630  138.0385  164.4574 N.3     1  UNL1       -0.2712
     19 C         138.4785  137.2233  165.6564 C.3     1  UNL1        0.0722
     20 C         137.8976  138.1517  166.6814 C.3     1  UNL1        0.0188
     21 C         137.9231  139.5408  166.1159 C.3     1  UNL1        0.0188
     22 C         138.5198  139.4709  164.7413 C.3     1  UNL1        0.0722
     23 N         144.1484  144.0450  163.6546 N.pl3   1  UNL1       -0.3181
     24 H         145.1063  144.1841  163.4746 H       1  UNL1        0.1482
     25 C         143.1243  144.8977  162.9660 C.3     1  UNL1        0.0882
     26 C         141.9200  145.3790  163.7195 C.3     1  UNL1        0.0214
     27 C         140.5752  144.7707  163.4517 C.3     1  UNL1        0.0067
     28 C         139.5053  144.8244  164.5017 C.3     1  UNL1        0.0322
     29 C         138.1605  144.2162  164.2339 C.3     1  UNL1        0.1422
     30 O         137.8857  143.5543  162.9162 O.3     1  UNL1       -0.3538
     31 C         138.9557  143.5007  161.8662 C.3     1  UNL1        0.1422
     32 C         140.3004  144.1089  162.1340 C.3     1  UNL1        0.0322
@<TRIPOS>BOND
     1    12    13    2
     2    13    14   am
     3    14    16    1
     4    16    17    1
     5    17    18    1
     6    18    19    1
     7    19    20    1
     8    20    21    1
     9    21    22    1
    10    13     1    1
    11     1     2   ar
    12     2     3   ar
    13     3    23    1
    14    23    25    1
    15    25    26    1
    16    26    27    1
    17    27    28    1
    18    28    29    1
    19    29    30    1
    20    30    31    1
    21    31    32    1
    22     3     4   ar
    23     4     5   ar
    24     5     6   ar
    25     6     7   ar
    26     7     8   ar
    27     8     9    1
    28     8    10   ar
    29    10    11   ar
    30    22    18    1
    31    11     1   ar
    32    32    27    1
    33    11     5   ar
    34    14    15    1
    35    23    24    1
@<TRIPOS>MOLECULE
*****
 32 35 0 0 0
SMALL
GASTEIGER

@<TRIPOS>ATOM
      1 C         141.5699  141.5846  165.6805 C.ar    1  UNL1        0.0576
      2 C         140.6690  140.8377  164.7421 C.ar    1  UNL1        0.0386
      3 C         139.4742  140.1036  165.2746 C.ar    1  UNL1        0.1286
      4 N         139.1801  140.1165  166.7454 N.ar    1  UNL1       -0.2309
      5 C         140.0810  140.8634  167.6838 C.ar    1  UNL1        0.0829
      6 C         139.7870  140.8762  169.1547 C.ar    1  UNL1        0.0200
      7 C         140.6878  141.6231  170.0930 C.ar    1  UNL1        0.0129
      8 C         141.8827  142.3572  169.5606 C.ar    1  UNL1        0.0578
      9 CL        142.7836  143.1041  170.4990 Cl      1  UNL1       -0.0822
     10 C         142.1767  142.3443  168.0898 C.ar    1  UNL1        0.0130
     11 C         141.2759  141.5974  167.1514 C.ar    1  UNL1        0.0230
     12 O         144.1158  141.6671  165.1689 O.2     1  UNL1       -0.2701
     13 C         142.7647  142.3186  165.1481 C.2     1  UNL1        0.2460
     14 N         142.6086  143.7040  164.5948 N.am    1  UNL1       -0.2994
     15 H         141.7219  144.1316  164.5812 H       1  UNL1        0.1498
     16 C         143.8035  144.4381  164.0624 C.3     1  UNL1        0.1070
     17 C         144.1803  144.3084  162.6162 C.3     1  UNL1        0.0936
     18 N         143.8400  143.0574  161.8618 N.3     1  UNL1       -0.2712
     19 C         144.6968  141.8307  161.7564 C.3     1  UNL1        0.0722
     20 C         143.9695  140.8285  160.9098 C.3     1  UNL1        0.0188
     21 C         142.6631  141.4358  160.4920 C.3     1  UNL1        0.0188
     22 C         142.5830  142.8133  161.0804 C.3     1  UNL1        0.0722
     23 N         138.5733  139.3567  164.3361 N.pl3   1  UNL1       -0.3181
     24 H         138.2959  138.4362  164.5482 H       1  UNL1        0.1482
     25 C         138.0951  140.0123  163.0746 C.3     1  UNL1        0.0882
     26 C         137.2885  141.2750  163.1448 C.3     1  UNL1        0.0214
     27 C         137.9802  142.6023  163.2444 C.3     1  UNL1        0.0067
     28 C         137.9503  143.3687  164.5335 C.3     1  UNL1        0.0322
     29 C         138.6419  144.6959  164.6331 C.3     1  UNL1        0.1422
     30 O         139.3635  145.2568  163.4437 O.3     1  UNL1       -0.3538
     31 C         139.3934  144.4904  162.1547 C.3     1  UNL1        0.1422
     32 C         138.7018  143.1631  162.0550 C.3     1  UNL1        0.0322
@<TRIPOS>BOND
     1    12    13    2
     2    13    14   am
     3    14    16    1
     4    16    17    1
     5    17    18    1
     6    18    19    1
     7    19    20    1
     8    20    21    1
     9    21    22    1
    10    13     1    1
    11     1     2   ar
    12     2     3   ar
    13     3    23    1
    14    23    25    1
    15    25    26    1
    16    26    27    1
    17    27    28    1
    18    28    29    1
    19    29    30    1
    20    30    31    1
    21    31    32    1
    22     3     4   ar
    23     4     5   ar
    24     5     6   ar
    25     6     7   ar
    26     7     8   ar
    27     8     9    1
    28     8    10   ar
    29    10    11   ar
    30    22    18    1
    31    11     1   ar
    32    32    27    1
    33    11     5   ar
    34    14    15    1
    35    23    24    1
@<TRIPOS>MOLECULE
*****
 32 35 0 0 0
SMALL
GASTEIGER

@<TRIPOS>ATOM
      1 C         140.7827  140.7899  165.4947 C.ar    1  UNL1        0.0576
      2 C         141.8989  141.3511  164.6646 C.ar    1  UNL1        0.0386
      3 C         142.9834  142.1590  165.3138 C.ar    1  UNL1        0.1286
      4 N         142.9516  142.4056  166.7930 N.ar    1  UNL1       -0.2309
      5 C         141.8354  141.8443  167.6231 C.ar    1  UNL1        0.0829
      6 C         141.8036  142.0909  169.1024 C.ar    1  UNL1        0.0200
      7 C         140.6874  141.5297  169.9324 C.ar    1  UNL1        0.0129
      8 C         139.6030  140.7219  169.2833 C.ar    1  UNL1        0.0578
      9 CL        138.4868  140.1606  170.1135 Cl      1  UNL1       -0.0822
     10 C         139.6348  140.4752  167.8041 C.ar    1  UNL1        0.0130
     11 C         140.7509  141.0365  166.9740 C.ar    1  UNL1        0.0230
     12 O         138.2872  140.4908  164.8367 O.2     1  UNL1       -0.2701
     13 C         139.6983  139.9820  164.8456 C.2     1  UNL1        0.2460
     14 N         140.0249  138.6654  164.2054 N.am    1  UNL1       -0.2994
     15 H         140.9510  138.3315  164.2112 H       1  UNL1        0.1498
     16 C         138.9405  137.8576  163.5563 C.3     1  UNL1        0.1070
     17 C         138.5461  138.1356  162.1359 C.3     1  UNL1        0.0936
     18 N         138.7517  139.5030  161.5544 N.3     1  UNL1       -0.2712
     19 C         137.6993  140.5595  161.3925 C.3     1  UNL1        0.0722
     20 C         138.3428  141.7634  160.7708 C.3     1  UNL1        0.0188
     21 C         139.7930  141.4509  160.5485 C.3     1  UNL1        0.0188
     22 C         140.0457  140.0539  161.0328 C.3     1  UNL1        0.0722
     23 N         144.0996  142.7202  164.4836 N.pl3   1  UNL1       -0.3181
     24 H         145.0124  142.3644  164.5809 H       1  UNL1        0.1482
     25 C         143.8251  143.8236  163.5053 C.3     1  UNL1        0.0882
     26 C         142.8864  144.9346  163.8719 C.3     1  UNL1        0.0214
     27 C         141.4883  144.9453  163.3284 C.3     1  UNL1        0.0067
     28 C         141.2504  145.2347  161.8760 C.3     1  UNL1        0.0322
     29 C         139.8524  145.2454  161.3325 C.3     1  UNL1        0.1422
     30 O         138.6923  144.9667  162.2416 O.3     1  UNL1       -0.3538
     31 C         138.9302  144.6774  163.6941 C.3     1  UNL1        0.1422
     32 C         140.3282  144.6667  164.2375 C.3     1  UNL1        0.0322
@<TRIPOS>BOND
     1    12    13    2
     2    13    14   am
     3    14    16    1
     4    16    17    1
     5    17    18    1
     6    18    19    1
     7    19    20    1
     8    20    21    1
     9    21    22    1
    10    13     1    1
    11     1     2   ar
    12     2     3   ar
    13     3    23    1
    14    23    25    1
    15    25    26    1
    16    26    27    1
    17    27    28    1
    18    28    29    1
    19    29    30    1
    20    30    31    1
    21    31    32    1
    22     3     4   ar
    23     4     5   ar
    24     5     6   ar
    25     6     7   ar
    26     7     8   ar
    27     8     9    1
    28     8    10   ar
    29    10    11   ar
    30    22    18    1
    31    11     1   ar
    32    32    27    1
    33    11     5   ar
    34    14    15    1
    35    23    24    1
@<TRIPOS>MOLECULE
*****
 32 35 0 0 0
SMALL
GASTEIGER

@<TRIPOS>ATOM
      1 C         140.6231  139.9628  165.5816 C.ar    1  UNL1        0.0576
      2 C         141.7991  139.6495  164.7048 C.ar    1  UNL1        0.0386
      3 C         143.1201  139.2946  165.3205 C.ar    1  UNL1        0.1286
      4 N         143.2651  139.2530  166.8128 N.ar    1  UNL1       -0.2309
      5 C         142.0890  139.5663  167.6897 C.ar    1  UNL1        0.0829
      6 C         142.2339  139.5246  169.1820 C.ar    1  UNL1        0.0200
      7 C         141.0579  139.8379  170.0588 C.ar    1  UNL1        0.0129
      8 C         139.7369  140.1929  169.4431 C.ar    1  UNL1        0.0578
      9 CL        138.5608  140.5062  170.3200 Cl      1  UNL1       -0.0822
     10 C         139.5919  140.2345  167.9508 C.ar    1  UNL1        0.0130
     11 C         140.7680  139.9212  167.0740 C.ar    1  UNL1        0.0230
     12 O         138.1355  139.3848  165.1038 O.2     1  UNL1       -0.2701
     13 C         139.3021  140.3178  164.9660 C.2     1  UNL1        0.2460
     14 N         139.1476  141.6056  164.2126 N.am    1  UNL1       -0.2994
     15 H         139.9132  142.2179  164.1221 H       1  UNL1        0.1498
     16 C         137.8266  141.9605  163.5969 C.3     1  UNL1        0.1070
     17 C         137.4247  141.3570  162.2838 C.3     1  UNL1        0.0936
     18 N         138.2768  140.2948  161.6545 N.3     1  UNL1       -0.2712
     19 C         139.5511  140.5211  160.8964 C.3     1  UNL1        0.0722
     20 C         140.0660  139.1860  160.4462 C.3     1  UNL1        0.0188
     21 C         139.1098  138.1347  160.9261 C.3     1  UNL1        0.0188
     22 C         138.0040  138.8199  161.6729 C.3     1  UNL1        0.0722
     23 N         144.2962  138.9813  164.4436 N.pl3   1  UNL1       -0.3181
     24 H         144.5573  138.0452  164.2862 H       1  UNL1        0.1482
     25 C         145.0744  140.0942  163.8067 C.3     1  UNL1        0.0882
     26 C         144.9953  141.4823  164.3695 C.3     1  UNL1        0.0214
     27 C         144.3218  142.5713  163.5879 C.3     1  UNL1        0.0067
     28 C         144.0249  143.8889  164.2403 C.3     1  UNL1        0.0322
     29 C         143.3514  144.9778  163.4588 C.3     1  UNL1        0.1422
     30 O         142.9749  144.7490  162.0250 O.3     1  UNL1       -0.3538
     31 C         143.2718  143.4314  161.3727 C.3     1  UNL1        0.1422
     32 C         143.9453  142.3425  162.1541 C.3     1  UNL1        0.0322
@<TRIPOS>BOND
     1    12    13    2
     2    13    14   am
     3    14    16    1
     4    16    17    1
     5    17    18    1
     6    18    19    1
     7    19    20    1
     8    20    21    1
     9    21    22    1
    10    13     1    1
    11     1     2   ar
    12     2     3   ar
    13     3    23    1
    14    23    25    1
    15    25    26    1
    16    26    27    1
    17    27    28    1
    18    28    29    1
    19    29    30    1
    20    30    31    1
    21    31    32    1
    22     3     4   ar
    23     4     5   ar
    24     5     6   ar
    25     6     7   ar
    26     7     8   ar
    27     8     9    1
    28     8    10   ar
    29    10    11   ar
    30    22    18    1
    31    11     1   ar
    32    32    27    1
    33    11     5   ar
    34    14    15    1
    35    23    24    1
