@<TRIPOS>MOLECULE
*****
 33 37 0 0 0
SMALL
GASTEIGER

@<TRIPOS>ATOM
      1 C         141.8589  139.3641  161.4464 C.ar    1  UNL1        0.0674
      2 C         141.9317  137.8935  161.7331 C.ar    1  UNL1        0.1133
      3 N         141.1107  137.3040  162.8414 N.ar    1  UNL1       -0.2425
      4 C         140.2170  138.1850  163.6631 C.ar    1  UNL1        0.0825
      5 C         139.3961  137.5954  164.7715 C.ar    1  UNL1        0.0230
      6 C         138.5024  138.4765  165.5932 C.ar    1  UNL1        0.0741
      7 C         138.4297  139.9471  165.3065 C.ar    1  UNL1        0.0183
      8 C         139.2507  140.5366  164.1982 C.ar    1  UNL1        0.0463
      9 C         140.1443  139.6556  163.3765 C.ar    1  UNL1        0.0320
     10 C         140.9653  140.2451  162.2681 C.ar    1  UNL1        0.0188
     11 C         145.1428  141.7225  157.0130 C.3     1  UNL1        0.0897
     12 N         144.3218  141.1329  158.1213 N.3     1  UNL1       -0.2686
     13 C         143.6182  139.8237  157.9188 C.3     1  UNL1        0.0938
     14 C         142.7972  139.2341  159.0272 C.3     1  UNL1        0.1082
     15 N         142.6799  139.9537  160.3380 N.pl3   1  UNL1       -0.3034
     16 C         143.3835  141.2628  160.5406 C.3     1  UNL1        0.1082
     17 C         144.2045  141.8524  159.4323 C.3     1  UNL1        0.0938
     18 C         137.6815  137.8869  166.7015 C.3     1  UNL1        0.4187
     19 F         136.8605  137.2973  167.8099 F       1  UNL1       -0.1659
     20 F         137.8952  136.5163  166.1309 F       1  UNL1       -0.1659
     21 F         137.4677  139.2575  167.2722 F       1  UNL1       -0.1659
     22 N         139.1780  142.0071  163.9115 N.pl3   1  UNL1       -0.3290
     23 H         138.6649  142.3329  163.1370 H       1  UNL1        0.1471
     24 C         139.8870  142.9813  164.8049 C.3     1  UNL1        0.1159
     25 C         141.3863  143.0241  164.8276 C.ar    1  UNL1        0.0199
     26 C         142.1343  142.4796  166.0083 C.ar    1  UNL1       -0.0009
     27 C         143.6336  142.5224  166.0310 C.ar    1  UNL1        0.0015
     28 C         144.3847  143.1098  164.8730 C.ar    1  UNL1        0.0241
     29 C         143.6366  143.6543  163.6924 C.ar    1  UNL1        0.1429
     30 N         144.1015  144.2890  162.4153 N.ar    1  UNL1       -0.0483
     31 O         142.8897  144.6385  161.6034 O.2     1  UNL1       -0.2415
     32 N         141.6758  144.2197  162.3786 N.ar    1  UNL1       -0.0485
     33 C         142.1374  143.6115  163.6697 C.ar    1  UNL1        0.1408
@<TRIPOS>BOND
     1    11    12    1
     2    12    13    1
     3    13    14    1
     4    14    15    1
     5    15     1    1
     6     1     2   ar
     7     2     3   ar
     8     3     4   ar
     9     4     5   ar
    10     5     6   ar
    11     6    18    1
    12    18    19    1
    13    18    20    1
    14    18    21    1
    15     6     7   ar
    16     7     8   ar
    17     8    22    1
    18    22    24    1
    19    24    25    1
    20    25    26   ar
    21    26    27   ar
    22    27    28   ar
    23    28    29   ar
    24    29    30   ar
    25    30    31   ar
    26    31    32   ar
    27    32    33   ar
    28     8     9   ar
    29     9    10   ar
    30    15    16    1
    31    16    17    1
    32    17    12    1
    33    10     1   ar
    34     9     4   ar
    35    33    25   ar
    36    33    29   ar
    37    22    23    1
@<TRIPOS>MOLECULE
*****
 33 37 0 0 0
SMALL
GASTEIGER

@<TRIPOS>ATOM
      1 C         141.6632  139.8567  161.8697 C.ar    1  UNL1        0.0674
      2 C         141.1551  138.4731  161.5919 C.ar    1  UNL1        0.1133
      3 N         140.2367  137.8011  162.5691 N.ar    1  UNL1       -0.2425
      4 C         139.8265  138.5127  163.8242 C.ar    1  UNL1        0.0825
      5 C         138.9081  137.8407  164.8014 C.ar    1  UNL1        0.0230
      6 C         138.4979  138.5524  166.0565 C.ar    1  UNL1        0.0741
      7 C         139.0060  139.9361  166.3343 C.ar    1  UNL1        0.0183
      8 C         139.9243  140.6081  165.3571 C.ar    1  UNL1        0.0463
      9 C         140.3346  139.8964  164.1020 C.ar    1  UNL1        0.0320
     10 C         141.2529  140.5684  163.1248 C.ar    1  UNL1        0.0188
     11 C         145.3366  142.5449  157.9607 C.3     1  UNL1        0.0897
     12 N         144.4183  141.8729  158.9379 N.3     1  UNL1       -0.2686
     13 C         144.0957  142.5378  160.2432 C.3     1  UNL1        0.0938
     14 C         143.1773  141.8657  161.2205 C.3     1  UNL1        0.1082
     15 N         142.5815  140.5288  160.8924 N.pl3   1  UNL1       -0.3034
     16 C         142.9041  139.8639  159.5871 C.3     1  UNL1        0.1082
     17 C         143.8224  140.5359  158.6099 C.3     1  UNL1        0.0938
     18 C         137.5795  137.8804  167.0337 C.3     1  UNL1        0.4187
     19 F         136.6611  137.2083  168.0110 F       1  UNL1       -0.1659
     20 F         137.6729  136.6073  166.2461 F       1  UNL1       -0.1659
     21 F         137.4861  139.1535  167.8214 F       1  UNL1       -0.1659
     22 N         140.4324  141.9918  165.6349 N.pl3   1  UNL1       -0.3290
     23 H         139.9974  142.7693  165.2160 H       1  UNL1        0.1471
     24 C         141.6033  142.1909  166.5511 C.3     1  UNL1        0.1159
     25 C         141.6002  141.5720  167.9176 C.ar    1  UNL1        0.0199
     26 C         142.2642  140.2459  168.1418 C.ar    1  UNL1       -0.0009
     27 C         142.2610  139.6270  169.5083 C.ar    1  UNL1        0.0015
     28 C         141.5938  140.3344  170.6504 C.ar    1  UNL1        0.0241
     29 C         140.9298  141.6607  170.4261 C.ar    1  UNL1        0.1429
     30 N         140.1979  142.5861  171.3523 N.ar    1  UNL1       -0.0483
     31 O         139.7488  143.7768  170.5584 O.2     1  UNL1       -0.2415
     32 N         140.2030  143.5873  169.1415 N.ar    1  UNL1       -0.0485
     33 C         140.9330  142.2794  169.0597 C.ar    1  UNL1        0.1408
@<TRIPOS>BOND
     1    11    12    1
     2    12    13    1
     3    13    14    1
     4    14    15    1
     5    15     1    1
     6     1     2   ar
     7     2     3   ar
     8     3     4   ar
     9     4     5   ar
    10     5     6   ar
    11     6    18    1
    12    18    19    1
    13    18    20    1
    14    18    21    1
    15     6     7   ar
    16     7     8   ar
    17     8    22    1
    18    22    24    1
    19    24    25    1
    20    25    26   ar
    21    26    27   ar
    22    27    28   ar
    23    28    29   ar
    24    29    30   ar
    25    30    31   ar
    26    31    32   ar
    27    32    33   ar
    28     8     9   ar
    29     9    10   ar
    30    15    16    1
    31    16    17    1
    32    17    12    1
    33    10     1   ar
    34     9     4   ar
    35    33    25   ar
    36    33    29   ar
    37    22    23    1
@<TRIPOS>MOLECULE
*****
 33 37 0 0 0
SMALL
GASTEIGER

@<TRIPOS>ATOM
      1 C         141.6660  139.5831  161.6825 C.ar    1  UNL1        0.0674
      2 C         141.2941  138.1356  161.5556 C.ar    1  UNL1        0.1133
      3 N         140.4034  137.4975  162.5800 N.ar    1  UNL1       -0.2425
      4 C         139.8846  138.3069  163.7313 C.ar    1  UNL1        0.0825
      5 C         138.9938  137.6688  164.7557 C.ar    1  UNL1        0.0230
      6 C         138.4750  138.4783  165.9071 C.ar    1  UNL1        0.0741
      7 C         138.8469  139.9259  166.0340 C.ar    1  UNL1        0.0183
      8 C         139.7376  140.5640  165.0096 C.ar    1  UNL1        0.0463
      9 C         140.2564  139.7545  163.8582 C.ar    1  UNL1        0.0320
     10 C         141.1471  140.3926  162.8338 C.ar    1  UNL1        0.0188
     11 C         145.2289  142.1358  157.5850 C.3     1  UNL1        0.0897
     12 N         144.3382  141.4977  158.6093 N.3     1  UNL1       -0.2686
     13 C         143.7593  140.1371  158.3566 C.3     1  UNL1        0.0938
     14 C         142.8686  139.4990  159.3811 C.3     1  UNL1        0.1082
     15 N         142.5567  140.2213  160.6581 N.pl3   1  UNL1       -0.3034
     16 C         143.1356  141.5818  160.9108 C.3     1  UNL1        0.1082
     17 C         144.0263  142.2200  159.8865 C.3     1  UNL1        0.0938
     18 C         137.5843  137.8402  166.9315 C.3     1  UNL1        0.4187
     19 F         136.6935  137.2021  167.9559 F       1  UNL1       -0.1659
     20 F         137.4945  139.1448  167.6661 F       1  UNL1       -0.1659
     21 F         137.6740  136.5355  166.1968 F       1  UNL1       -0.1659
     22 N         140.1094  142.0116  165.1365 N.pl3   1  UNL1       -0.3290
     23 H         139.5978  142.6960  164.6475 H       1  UNL1        0.1471
     24 C         141.2608  142.4165  166.0085 C.3     1  UNL1        0.1159
     25 C         141.2655  142.0494  167.4629 C.ar    1  UNL1        0.0199
     26 C         140.5609  142.9219  168.4590 C.ar    1  UNL1       -0.0009
     27 C         140.5657  142.5548  169.9134 C.ar    1  UNL1        0.0015
     28 C         141.2750  141.3151  170.3716 C.ar    1  UNL1        0.0241
     29 C         141.9797  140.4425  169.3755 C.ar    1  UNL1        0.1429
     30 N         142.7575  139.1693  169.5295 N.ar    1  UNL1       -0.0483
     31 O         143.2335  138.7495  168.1705 O.2     1  UNL1       -0.2415
     32 N         142.7498  139.7634  167.1764 N.ar    1  UNL1       -0.0485
     33 C         141.9749  140.8097  167.9211 C.ar    1  UNL1        0.1408
@<TRIPOS>BOND
     1    11    12    1
     2    12    13    1
     3    13    14    1
     4    14    15    1
     5    15     1    1
     6     1     2   ar
     7     2     3   ar
     8     3     4   ar
     9     4     5   ar
    10     5     6   ar
    11     6    18    1
    12    18    19    1
    13    18    20    1
    14    18    21    1
    15     6     7   ar
    16     7     8   ar
    17     8    22    1
    18    22    24    1
    19    24    25    1
    20    25    26   ar
    21    26    27   ar
    22    27    28   ar
    23    28    29   ar
    24    29    30   ar
    25    30    31   ar
    26    31    32   ar
    27    32    33   ar
    28     8     9   ar
    29     9    10   ar
    30    15    16    1
    31    16    17    1
    32    17    12    1
    33    10     1   ar
    34     9     4   ar
    35    33    25   ar
    36    33    29   ar
    37    22    23    1
@<TRIPOS>MOLECULE
*****
 33 37 0 0 0
SMALL
GASTEIGER

@<TRIPOS>ATOM
      1 C         142.2488  139.2996  162.0569 C.ar    1  UNL1        0.0674
      2 C         143.2905  139.1083  163.1191 C.ar    1  UNL1        0.1133
      3 N         142.9088  139.1909  164.5674 N.ar    1  UNL1       -0.2425
      4 C         141.4855  139.4648  164.9534 C.ar    1  UNL1        0.0825
      5 C         141.1038  139.5474  166.4018 C.ar    1  UNL1        0.0230
      6 C         139.6805  139.8214  166.7879 C.ar    1  UNL1        0.0741
      7 C         138.6388  140.0127  165.7256 C.ar    1  UNL1        0.0183
      8 C         139.0204  139.9301  164.2774 C.ar    1  UNL1        0.0463
      9 C         140.4438  139.6562  163.8913 C.ar    1  UNL1        0.0320
     10 C         140.8254  139.5736  162.4430 C.ar    1  UNL1        0.0188
     11 C         143.7752  138.9692  156.2637 C.3     1  UNL1        0.0897
     12 N         143.3937  139.0518  157.7120 N.3     1  UNL1       -0.2686
     13 C         143.7767  140.2554  158.5210 C.3     1  UNL1        0.0938
     14 C         143.3951  140.3380  159.9694 C.3     1  UNL1        0.1082
     15 N         142.6304  139.2170  160.6086 N.pl3   1  UNL1       -0.3034
     16 C         142.2474  138.0134  159.7996 C.3     1  UNL1        0.1082
     17 C         142.6290  137.9308  158.3513 C.3     1  UNL1        0.0938
     18 C         139.2988  139.9040  168.2361 C.3     1  UNL1        0.4187
     19 F         138.9172  139.9866  169.6844 F       1  UNL1       -0.1659
     20 F         140.5655  140.6528  168.5272 F       1  UNL1       -0.1659
     21 F         138.0322  139.1552  167.9450 F       1  UNL1       -0.1659
     22 N         137.9788  140.1214  163.2152 N.pl3   1  UNL1       -0.3290
     23 H         137.7810  139.3933  162.5828 H       1  UNL1        0.1471
     24 C         137.2383  141.4222  163.1165 C.3     1  UNL1        0.1159
     25 C         137.9877  142.7194  163.1920 C.ar    1  UNL1        0.0199
     26 C         138.1643  143.4079  164.5129 C.ar    1  UNL1       -0.0009
     27 C         138.9138  144.7051  164.5883 C.ar    1  UNL1        0.0015
     28 C         139.4866  145.3138  163.3428 C.ar    1  UNL1        0.0241
     29 C         139.3100  144.6253  162.0218 C.ar    1  UNL1        0.1429
     30 N         139.7591  144.9823  160.6359 N.ar    1  UNL1       -0.0483
     31 O         139.2873  143.9059  159.7040 O.2     1  UNL1       -0.2415
     32 N         138.5465  142.8835  160.5139 N.ar    1  UNL1       -0.0485
     33 C         138.5606  143.3282  161.9464 C.ar    1  UNL1        0.1408
@<TRIPOS>BOND
     1    11    12    1
     2    12    13    1
     3    13    14    1
     4    14    15    1
     5    15     1    1
     6     1     2   ar
     7     2     3   ar
     8     3     4   ar
     9     4     5   ar
    10     5     6   ar
    11     6    18    1
    12    18    19    1
    13    18    20    1
    14    18    21    1
    15     6     7   ar
    16     7     8   ar
    17     8    22    1
    18    22    24    1
    19    24    25    1
    20    25    26   ar
    21    26    27   ar
    22    27    28   ar
    23    28    29   ar
    24    29    30   ar
    25    30    31   ar
    26    31    32   ar
    27    32    33   ar
    28     8     9   ar
    29     9    10   ar
    30    15    16    1
    31    16    17    1
    32    17    12    1
    33    10     1   ar
    34     9     4   ar
    35    33    25   ar
    36    33    29   ar
    37    22    23    1
@<TRIPOS>MOLECULE
*****
 33 37 0 0 0
SMALL
GASTEIGER

@<TRIPOS>ATOM
      1 C         140.2228  138.5934  162.3034 C.ar    1  UNL1        0.0674
      2 C         139.1241  137.7355  162.8572 C.ar    1  UNL1        0.1133
      3 N         138.6953  137.8955  164.2856 N.ar    1  UNL1       -0.2425
      4 C         139.3654  138.9134  165.1603 C.ar    1  UNL1        0.0825
      5 C         138.9366  139.0733  166.5888 C.ar    1  UNL1        0.0230
      6 C         139.6066  140.0912  167.4635 C.ar    1  UNL1        0.0741
      7 C         140.7055  140.9490  166.9096 C.ar    1  UNL1        0.0183
      8 C         141.1342  140.7890  165.4812 C.ar    1  UNL1        0.0463
      9 C         140.4641  139.7712  164.6065 C.ar    1  UNL1        0.0320
     10 C         140.8929  139.6112  163.1781 C.ar    1  UNL1        0.0188
     11 C         141.9379  137.9535  156.5894 C.3     1  UNL1        0.0897
     12 N         141.5092  138.1135  158.0179 N.3     1  UNL1       -0.2686
     13 C         142.5156  137.9815  159.1223 C.3     1  UNL1        0.0938
     14 C         142.0868  138.1415  160.5508 C.3     1  UNL1        0.1082
     15 N         140.6516  138.4334  160.8749 N.pl3   1  UNL1       -0.3034
     16 C         139.6452  138.5653  159.7705 C.3     1  UNL1        0.1082
     17 C         140.0739  138.4054  158.3420 C.3     1  UNL1        0.0938
     18 C         139.1779  140.2512  168.8920 C.3     1  UNL1        0.4187
     19 F         138.7491  140.4111  170.3205 F       1  UNL1       -0.1659
     20 F         138.0327  139.3122  168.6534 F       1  UNL1       -0.1659
     21 F         140.3230  141.1901  169.1305 F       1  UNL1       -0.1659
     22 N         142.2330  141.6469  164.9274 N.pl3   1  UNL1       -0.3290
     23 H         143.1460  141.2872  164.8487 H       1  UNL1        0.1471
     24 C         141.9406  143.0527  164.4935 C.3     1  UNL1        0.1159
     25 C         140.5356  143.4572  164.1580 C.ar    1  UNL1        0.0199
     26 C         139.6616  144.0744  165.2091 C.ar    1  UNL1       -0.0009
     27 C         138.2566  144.4789  164.8736 C.ar    1  UNL1        0.0015
     28 C         137.7258  144.2662  163.4869 C.ar    1  UNL1        0.0241
     29 C         138.6000  143.6489  162.4357 C.ar    1  UNL1        0.1429
     30 N         138.3544  143.3182  160.9934 N.ar    1  UNL1       -0.0483
     31 O         139.6074  142.7093  160.4375 O.2     1  UNL1       -0.2415
     32 N         140.6275  142.6638  161.5363 N.ar    1  UNL1       -0.0485
     33 C         140.0048  143.2445  162.7712 C.ar    1  UNL1        0.1408
@<TRIPOS>BOND
     1    11    12    1
     2    12    13    1
     3    13    14    1
     4    14    15    1
     5    15     1    1
     6     1     2   ar
     7     2     3   ar
     8     3     4   ar
     9     4     5   ar
    10     5     6   ar
    11     6    18    1
    12    18    19    1
    13    18    20    1
    14    18    21    1
    15     6     7   ar
    16     7     8   ar
    17     8    22    1
    18    22    24    1
    19    24    25    1
    20    25    26   ar
    21    26    27   ar
    22    27    28   ar
    23    28    29   ar
    24    29    30   ar
    25    30    31   ar
    26    31    32   ar
    27    32    33   ar
    28     8     9   ar
    29     9    10   ar
    30    15    16    1
    31    16    17    1
    32    17    12    1
    33    10     1   ar
    34     9     4   ar
    35    33    25   ar
    36    33    29   ar
    37    22    23    1
@<TRIPOS>MOLECULE
*****
 33 37 0 0 0
SMALL
GASTEIGER

@<TRIPOS>ATOM
      1 C         139.7490  142.4543  163.4075 C.ar    1  UNL1        0.0674
      2 C         140.4910  143.5149  164.1654 C.ar    1  UNL1        0.1133
      3 N         140.7197  143.3618  165.6399 N.ar    1  UNL1       -0.2425
      4 C         140.2063  142.1482  166.3565 C.ar    1  UNL1        0.0825
      5 C         140.4350  141.9951  167.8311 C.ar    1  UNL1        0.0230
      6 C         139.9216  140.7815  168.5477 C.ar    1  UNL1        0.0741
      7 C         139.1795  139.7209  167.7897 C.ar    1  UNL1        0.0183
      8 C         138.9508  139.8739  166.3152 C.ar    1  UNL1        0.0463
      9 C         139.4642  141.0876  165.5986 C.ar    1  UNL1        0.0320
     10 C         139.2356  141.2407  164.1241 C.ar    1  UNL1        0.0188
     11 C         138.8342  143.0666  157.5093 C.3     1  UNL1        0.0897
     12 N         139.0629  142.9135  158.9838 N.3     1  UNL1       -0.2686
     13 C         138.4975  141.7300  159.7116 C.3     1  UNL1        0.0938
     14 C         138.7262  141.5769  161.1862 C.3     1  UNL1        0.1082
     15 N         139.5203  142.6074  161.9329 N.pl3   1  UNL1       -0.3034
     16 C         140.0856  143.7909  161.2051 C.3     1  UNL1        0.1082
     17 C         139.8570  143.9439  159.7306 C.3     1  UNL1        0.0938
     18 C         140.1503  140.6284  170.0222 C.3     1  UNL1        0.4187
     19 F         140.3789  140.4753  171.4968 F       1  UNL1       -0.1659
     20 F         139.2113  141.7679  170.2861 F       1  UNL1       -0.1659
     21 F         141.0892  139.4889  169.7583 F       1  UNL1       -0.1659
     22 N         138.2088  138.8134  165.5573 N.pl3   1  UNL1       -0.3290
     23 H         137.2367  138.8932  165.4230 H       1  UNL1        0.1471
     24 C         138.9477  137.6311  165.0038 C.3     1  UNL1        0.1159
     25 C         140.1417  137.8396  164.1200 C.ar    1  UNL1        0.0199
     26 C         141.5157  137.9028  164.7182 C.ar    1  UNL1       -0.0009
     27 C         142.7097  138.1112  163.8343 C.ar    1  UNL1        0.0015
     28 C         142.5295  138.2564  162.3523 C.ar    1  UNL1        0.0241
     29 C         141.1553  138.1932  161.7541 C.ar    1  UNL1        0.1429
     30 N         140.6708  138.3027  160.3387 N.ar    1  UNL1       -0.0483
     31 O         139.1775  138.1619  160.3478 O.2     1  UNL1       -0.2415
     32 N         138.7391  137.9654  161.7688 N.ar    1  UNL1       -0.0485
     33 C         139.9615  137.9848  162.6379 C.ar    1  UNL1        0.1408
@<TRIPOS>BOND
     1    11    12    1
     2    12    13    1
     3    13    14    1
     4    14    15    1
     5    15     1    1
     6     1     2   ar
     7     2     3   ar
     8     3     4   ar
     9     4     5   ar
    10     5     6   ar
    11     6    18    1
    12    18    19    1
    13    18    20    1
    14    18    21    1
    15     6     7   ar
    16     7     8   ar
    17     8    22    1
    18    22    24    1
    19    24    25    1
    20    25    26   ar
    21    26    27   ar
    22    27    28   ar
    23    28    29   ar
    24    29    30   ar
    25    30    31   ar
    26    31    32   ar
    27    32    33   ar
    28     8     9   ar
    29     9    10   ar
    30    15    16    1
    31    16    17    1
    32    17    12    1
    33    10     1   ar
    34     9     4   ar
    35    33    25   ar
    36    33    29   ar
    37    22    23    1
@<TRIPOS>MOLECULE
*****
 33 37 0 0 0
SMALL
GASTEIGER

@<TRIPOS>ATOM
      1 C         143.4112  141.5843  162.7217 C.ar    1  UNL1        0.0674
      2 C         144.5114  141.3653  163.7175 C.ar    1  UNL1        0.1133
      3 N         144.2442  141.5465  165.1823 N.ar    1  UNL1       -0.2425
      4 C         142.8767  141.9467  165.6514 C.ar    1  UNL1        0.0825
      5 C         142.6095  142.1279  167.1162 C.ar    1  UNL1        0.0230
      6 C         141.2421  142.5280  167.5853 C.ar    1  UNL1        0.0741
      7 C         140.1418  142.7470  166.5894 C.ar    1  UNL1        0.0183
      8 C         140.4091  142.5658  165.1246 C.ar    1  UNL1        0.0463
      9 C         141.7765  142.1656  164.6556 C.ar    1  UNL1        0.0320
     10 C         142.0438  141.9844  163.1908 C.ar    1  UNL1        0.0188
     11 C         144.4801  140.8594  156.8623 C.3     1  UNL1        0.0897
     12 N         144.2129  141.0406  158.3271 N.3     1  UNL1       -0.2686
     13 C         144.4921  142.3605  158.9828 C.3     1  UNL1        0.0938
     14 C         144.2249  142.5417  160.4477 C.3     1  UNL1        0.1082
     15 N         143.6785  141.4031  161.2569 N.pl3   1  UNL1       -0.3034
     16 C         143.3992  140.0832  160.6012 C.3     1  UNL1        0.1082
     17 C         143.6664  139.9019  159.1364 C.3     1  UNL1        0.0938
     18 C         140.9748  142.7092  169.0501 C.3     1  UNL1        0.4187
     19 F         140.7075  142.8905  170.5150 F       1  UNL1       -0.1659
     20 F         140.0999  143.8886  168.7446 F       1  UNL1       -0.1659
     21 F         141.8497  141.5298  169.3556 F       1  UNL1       -0.1659
     22 N         139.3089  142.7847  164.1288 N.pl3   1  UNL1       -0.3290
     23 H         139.2884  143.6093  163.5913 H       1  UNL1        0.1471
     24 C         138.2399  141.7474  163.9520 C.3     1  UNL1        0.1159
     25 C         138.5203  140.3150  164.2979 C.ar    1  UNL1        0.0199
     26 C         138.1003  139.7691  165.6304 C.ar    1  UNL1       -0.0009
     27 C         138.3807  138.3367  165.9763 C.ar    1  UNL1        0.0015
     28 C         139.0812  137.4502  164.9896 C.ar    1  UNL1        0.0241
     29 C         139.5012  137.9961  163.6571 C.ar    1  UNL1        0.1429
     30 N         140.2031  137.3665  162.4905 N.ar    1  UNL1       -0.0483
     31 O         140.3564  138.4097  161.4237 O.2     1  UNL1       -0.2415
     32 N         139.7494  139.6841  161.9310 N.ar    1  UNL1       -0.0485
     33 C         139.2208  139.4285  163.3113 C.ar    1  UNL1        0.1408
@<TRIPOS>BOND
     1    11    12    1
     2    12    13    1
     3    13    14    1
     4    14    15    1
     5    15     1    1
     6     1     2   ar
     7     2     3   ar
     8     3     4   ar
     9     4     5   ar
    10     5     6   ar
    11     6    18    1
    12    18    19    1
    13    18    20    1
    14    18    21    1
    15     6     7   ar
    16     7     8   ar
    17     8    22    1
    18    22    24    1
    19    24    25    1
    20    25    26   ar
    21    26    27   ar
    22    27    28   ar
    23    28    29   ar
    24    29    30   ar
    25    30    31   ar
    26    31    32   ar
    27    32    33   ar
    28     8     9   ar
    29     9    10   ar
    30    15    16    1
    31    16    17    1
    32    17    12    1
    33    10     1   ar
    34     9     4   ar
    35    33    25   ar
    36    33    29   ar
    37    22    23    1
@<TRIPOS>MOLECULE
*****
 33 37 0 0 0
SMALL
GASTEIGER

@<TRIPOS>ATOM
      1 C         142.4431  142.2925  165.7000 C.ar    1  UNL1        0.0674
      2 C         143.6315  142.7952  164.9352 C.ar    1  UNL1        0.1133
      3 N         143.4368  143.5028  163.6270 N.ar    1  UNL1       -0.2425
      4 C         142.0538  143.7078  163.0837 C.ar    1  UNL1        0.0825
      5 C         141.8591  144.4155  161.7755 C.ar    1  UNL1        0.0230
      6 C         140.4761  144.6205  161.2322 C.ar    1  UNL1        0.0741
      7 C         139.2877  144.1177  161.9971 C.ar    1  UNL1        0.0183
      8 C         139.4824  143.4101  163.3052 C.ar    1  UNL1        0.0463
      9 C         140.8654  143.2051  163.8485 C.ar    1  UNL1        0.0320
     10 C         141.0601  142.4974  165.1567 C.ar    1  UNL1        0.0188
     11 C         143.2216  139.4617  170.9327 C.3     1  UNL1        0.0897
     12 N         143.0270  140.1694  169.6246 N.3     1  UNL1       -0.2686
     13 C         143.2510  141.6497  169.5321 C.3     1  UNL1        0.0938
     14 C         143.0564  142.3574  168.2238 C.3     1  UNL1        0.1082
     15 N         142.6377  141.5848  167.0082 N.pl3   1  UNL1       -0.3034
     16 C         142.4137  140.1045  167.1007 C.3     1  UNL1        0.1082
     17 C         142.6083  139.3968  168.4088 C.3     1  UNL1        0.0938
     18 C         140.2814  145.3281  159.9240 C.3     1  UNL1        0.4187
     19 F         140.0867  146.0358  158.6159 F       1  UNL1       -0.1659
     20 F         139.5721  146.4435  160.6330 F       1  UNL1       -0.1659
     21 F         140.9907  144.2127  159.2151 F       1  UNL1       -0.1659
     22 N         138.2940  142.9074  164.0701 N.pl3   1  UNL1       -0.3290
     23 H         137.9557  143.4145  164.8432 H       1  UNL1        0.1471
     24 C         137.6210  141.6320  163.6570 C.3     1  UNL1        0.1159
     25 C         138.2327  140.3105  164.0169 C.ar    1  UNL1        0.0199
     26 C         138.1752  139.8180  165.4325 C.ar    1  UNL1       -0.0009
     27 C         138.7870  138.4965  165.7923 C.ar    1  UNL1        0.0015
     28 C         139.4563  137.6676  164.7364 C.ar    1  UNL1        0.0241
     29 C         139.5138  138.1601  163.3207 C.ar    1  UNL1        0.1429
     30 N         140.1020  137.5671  162.0748 N.ar    1  UNL1       -0.0483
     31 O         139.8537  138.5220  160.9451 O.2     1  UNL1       -0.2415
     32 N         139.1121  139.7052  161.4927 N.ar    1  UNL1       -0.0485
     33 C         138.9021  139.4816  162.9610 C.ar    1  UNL1        0.1408
@<TRIPOS>BOND
     1    11    12    1
     2    12    13    1
     3    13    14    1
     4    14    15    1
     5    15     1    1
     6     1     2   ar
     7     2     3   ar
     8     3     4   ar
     9     4     5   ar
    10     5     6   ar
    11     6    18    1
    12    18    19    1
    13    18    20    1
    14    18    21    1
    15     6     7   ar
    16     7     8   ar
    17     8    22    1
    18    22    24    1
    19    24    25    1
    20    25    26   ar
    21    26    27   ar
    22    27    28   ar
    23    28    29   ar
    24    29    30   ar
    25    30    31   ar
    26    31    32   ar
    27    32    33   ar
    28     8     9   ar
    29     9    10   ar
    30    15    16    1
    31    16    17    1
    32    17    12    1
    33    10     1   ar
    34     9     4   ar
    35    33    25   ar
    36    33    29   ar
    37    22    23    1
@<TRIPOS>MOLECULE
*****
 33 37 0 0 0
SMALL
GASTEIGER

@<TRIPOS>ATOM
      1 C         141.5343  139.1074  160.1893 C.ar    1  UNL1        0.0674
      2 C         140.3180  138.2619  159.9534 C.ar    1  UNL1        0.1133
      3 N         139.3885  137.9519  161.0891 N.ar    1  UNL1       -0.2425
      4 C         139.6752  138.4874  162.4606 C.ar    1  UNL1        0.0825
      5 C         138.7456  138.1773  163.5963 C.ar    1  UNL1        0.0230
      6 C         139.0324  138.7128  164.9678 C.ar    1  UNL1        0.0741
      7 C         140.2487  139.5583  165.2036 C.ar    1  UNL1        0.0183
      8 C         141.1783  139.8684  164.0679 C.ar    1  UNL1        0.0463
      9 C         140.8915  139.3329  162.6964 C.ar    1  UNL1        0.0320
     10 C         141.8211  139.6429  161.5608 C.ar    1  UNL1        0.0188
     11 C         145.2528  140.3478  155.6467 C.3     1  UNL1        0.0897
     12 N         144.3232  140.0377  156.7823 N.3     1  UNL1       -0.2686
     13 C         143.3342  138.9168  156.6573 C.3     1  UNL1        0.0938
     14 C         142.4046  138.6067  157.7930 C.3     1  UNL1        0.1082
     15 N         142.4639  139.4175  159.0536 N.pl3   1  UNL1       -0.3034
     16 C         143.4529  140.5383  159.1786 C.3     1  UNL1        0.1082
     17 C         144.3825  140.8484  158.0430 C.3     1  UNL1        0.0938
     18 C         138.1028  138.4027  166.1035 C.3     1  UNL1        0.4187
     19 F         137.1732  138.0927  167.2392 F       1  UNL1       -0.1659
     20 F         137.9107  139.8703  166.3468 F       1  UNL1       -0.1659
     21 F         138.2950  136.9352  165.8601 F       1  UNL1       -0.1659
     22 N         142.3946  140.7139  164.3038 N.pl3   1  UNL1       -0.3290
     23 H         143.2305  140.2977  164.6157 H       1  UNL1        0.1471
     24 C         142.3373  142.1936  164.0644 C.3     1  UNL1        0.1159
     25 C         141.0634  142.9451  164.3146 C.ar    1  UNL1        0.0199
     26 C         140.6235  143.2282  165.7204 C.ar    1  UNL1       -0.0009
     27 C         139.3496  143.9797  165.9707 C.ar    1  UNL1        0.0015
     28 C         138.5158  144.4481  164.8151 C.ar    1  UNL1        0.0241
     29 C         138.9558  144.1649  163.4093 C.ar    1  UNL1        0.1429
     30 N         138.3459  144.4988  162.0801 N.ar    1  UNL1       -0.0483
     31 O         139.2427  143.9537  161.0085 O.2     1  UNL1       -0.2415
     32 N         140.4069  143.2829  161.6753 N.ar    1  UNL1       -0.0485
     33 C         140.2296  143.4134  163.1591 C.ar    1  UNL1        0.1408
@<TRIPOS>BOND
     1    11    12    1
     2    12    13    1
     3    13    14    1
     4    14    15    1
     5    15     1    1
     6     1     2   ar
     7     2     3   ar
     8     3     4   ar
     9     4     5   ar
    10     5     6   ar
    11     6    18    1
    12    18    19    1
    13    18    20    1
    14    18    21    1
    15     6     7   ar
    16     7     8   ar
    17     8    22    1
    18    22    24    1
    19    24    25    1
    20    25    26   ar
    21    26    27   ar
    22    27    28   ar
    23    28    29   ar
    24    29    30   ar
    25    30    31   ar
    26    31    32   ar
    27    32    33   ar
    28     8     9   ar
    29     9    10   ar
    30    15    16    1
    31    16    17    1
    32    17    12    1
    33    10     1   ar
    34     9     4   ar
    35    33    25   ar
    36    33    29   ar
    37    22    23    1
