@<TRIPOS>MOLECULE
*****
 37 42 0 0 0
SMALL
GASTEIGER

@<TRIPOS>ATOM
      1 C         142.3744  141.2969  160.4431 C.2     1  UNL1        0.4243
      2 N         141.2119  142.2447  160.4580 N.2     1  UNL1        0.0275
      3 C         140.2790  142.2691  161.6324 C.2     1  UNL1        0.3991
      4 N         139.0576  143.0883  161.9271 N.2     1  UNL1        0.0826
      5 N         138.5323  142.6712  163.2687 N.2     1  UNL1       -0.0375
      6 C         139.4291  141.5942  163.8032 C.2     1  UNL1        0.1283
      7 C         140.5087  141.3457  162.7919 C.3     1  UNL1        0.2504
      8 C         141.6712  140.3978  162.7771 C.2     1  UNL1        0.3055
      9 O         141.9008  139.4744  163.9366 O.2     1  UNL1       -0.2554
     10 N         142.6040  140.3734  161.6027 N.am    1  UNL1       -0.1358
     11 C         143.7665  139.4255  161.5878 C.3     1  UNL1        0.2167
     12 C         148.2192  142.3914  154.8172 C.3     1  UNL1        0.0335
     13 C         147.0020  141.7491  155.4136 C.3     1  UNL1        0.1294
     14 O         146.2150  140.6227  154.8119 O.3     1  UNL1       -0.3548
     15 C         145.0846  140.2979  155.7429 C.3     1  UNL1        0.1435
     16 C         145.1729  141.2235  156.9200 C.3     1  UNL1        0.0490
     17 C         144.0250  140.2603  156.9861 C.3     1  UNL1        0.0444
     18 C         143.0922  140.2847  158.1605 C.3     1  UNL1        0.1682
     19 N         143.3073  141.2724  159.2687 N.pl3   1  UNL1       -0.1900
     20 C         144.4552  142.2357  159.2026 C.3     1  UNL1        0.1682
     21 C         145.3880  142.2112  158.0282 C.3     1  UNL1        0.0444
     22 C         146.3580  142.1204  156.7164 C.3     1  UNL1        0.0808
     23 N         146.8181  143.1992  157.6515 N.3     1  UNL1       -0.3202
     24 H         146.1977  143.2354  158.4603 H       1  UNL1        0.1189
     25 H         146.8005  144.0977  157.1690 H       1  UNL1        0.1189
     26 C         139.2737  140.8894  165.1182 C.ar    1  UNL1        0.0333
     27 C         138.2930  139.7625  165.2537 C.ar    1  UNL1        0.0229
     28 C         138.1375  139.0576  166.5687 C.ar    1  UNL1        0.1004
     29 N         138.9625  139.4798  167.7481 N.ar    1  UNL1       -0.2285
     30 C         139.9432  140.6067  167.6126 C.ar    1  UNL1        0.1391
     31 C         140.0987  141.3115  166.2976 C.ar    1  UNL1        0.0902
     32 CL        141.0793  142.4384  166.1621 Cl      1  UNL1       -0.0793
     33 N         140.7683  141.0289  168.7919 N.pl3   1  UNL1       -0.3191
     34 H         141.5517  140.4966  169.0604 H       1  UNL1        0.1482
     35 C         140.3997  142.2622  169.5622 C.3     1  UNL1        0.0705
     36 C         139.6846  142.9119  170.7095 C.3     1  UNL1        0.0212
     37 C         140.4766  143.7485  169.7489 C.3     1  UNL1        0.0212
@<TRIPOS>BOND
     1    13    12    1
     2    13    14    1
     3    14    15    1
     4    15    16    1
     5    16    17    1
     6    17    18    1
     7    18    19    1
     8    19     1    1
     9     1     2    2
    10     2     3    1
    11     3     4    2
    12     4     5    1
    13     5     6    2
    14     6    26    1
    15    26    27   ar
    16    27    28   ar
    17    28    29   ar
    18    29    30   ar
    19    30    33    1
    20    33    35    1
    21    35    36    1
    22    36    37    1
    23    30    31   ar
    24    31    32    1
    25     6     7    1
    26     7     8    1
    27     8     9    2
    28     8    10   am
    29    10    11    1
    30    19    20    1
    31    20    21    1
    32    16    22    1
    33    22    23    1
    34    22    13    1
    35    21    16    1
    36    10     1    1
    37     7     3    1
    38    31    26   ar
    39    37    35    1
    40    33    34    1
    41    23    24    1
    42    23    25    1
@<TRIPOS>MOLECULE
*****
 37 42 0 0 0
SMALL
GASTEIGER

@<TRIPOS>ATOM
      1 C         140.5363  139.5480  162.0177 C.2     1  UNL1        0.4243
      2 N         139.7167  140.2462  160.9734 N.2     1  UNL1        0.0275
      3 C         140.1744  140.2584  159.5449 C.2     1  UNL1        0.3991
      4 N         139.5810  140.8604  158.3059 N.2     1  UNL1        0.0826
      5 N         140.4916  140.5464  157.1560 N.2     1  UNL1       -0.0375
      6 C         141.6478  139.7503  157.6845 C.2     1  UNL1        0.1283
      7 C         141.4518  139.5722  159.1608 C.3     1  UNL1        0.2504
      8 C         142.2714  138.8740  160.2052 C.2     1  UNL1        0.3055
      9 O         143.5488  138.1878  159.8212 O.2     1  UNL1       -0.2554
     10 N         141.8137  138.8618  161.6336 N.am    1  UNL1       -0.1358
     11 C         142.6333  138.1636  162.6780 C.3     1  UNL1        0.2167
     12 C         139.2180  140.6002  170.0280 C.3     1  UNL1        0.0335
     13 C         138.9779  140.0063  168.6718 C.3     1  UNL1        0.1294
     14 O         137.9394  138.9791  168.3303 O.3     1  UNL1       -0.3548
     15 C         138.0539  138.6733  166.8661 C.3     1  UNL1        0.1435
     16 C         139.1631  139.5114  166.3028 C.3     1  UNL1        0.0490
     17 C         138.4926  138.6280  165.2929 C.3     1  UNL1        0.0444
     18 C         138.9504  138.6402  163.8645 C.3     1  UNL1        0.1682
     19 N         140.0786  139.5358  163.4461 N.pl3   1  UNL1       -0.1900
     20 C         140.7490  140.4192  164.4561 C.3     1  UNL1        0.1682
     21 C         140.2913  140.4070  165.8844 C.3     1  UNL1        0.0444
     22 C         139.7341  140.3353  167.4188 C.3     1  UNL1        0.0808
     23 N         140.8632  141.3158  167.3022 N.3     1  UNL1       -0.3202
     24 H         141.1925  141.3420  166.3371 H       1  UNL1        0.1189
     25 H         141.6270  141.0292  167.9144 H       1  UNL1        0.1189
     26 C         142.7981  139.2245  156.8780 C.ar    1  UNL1        0.0333
     27 C         144.0092  140.0803  156.6526 C.ar    1  UNL1        0.0229
     28 C         145.1595  139.5546  155.8461 C.ar    1  UNL1        0.1004
     29 N         145.0987  138.1731  155.2650 N.ar    1  UNL1       -0.2285
     30 C         143.8876  137.3173  155.4904 C.ar    1  UNL1        0.1391
     31 C         142.7373  137.8430  156.2969 C.ar    1  UNL1        0.0902
     32 CL        141.5262  136.9872  156.5222 Cl      1  UNL1       -0.0793
     33 N         143.8268  135.9358  154.9093 N.pl3   1  UNL1       -0.3191
     34 H         143.8004  135.8132  153.9328 H       1  UNL1        0.1482
     35 C         143.8061  134.7410  155.8160 C.3     1  UNL1        0.0705
     36 C         143.7375  134.1591  157.1969 C.3     1  UNL1        0.0212
     37 C         143.8389  133.2534  156.0055 C.3     1  UNL1        0.0212
@<TRIPOS>BOND
     1    13    12    1
     2    13    14    1
     3    14    15    1
     4    15    16    1
     5    16    17    1
     6    17    18    1
     7    18    19    1
     8    19     1    1
     9     1     2    2
    10     2     3    1
    11     3     4    2
    12     4     5    1
    13     5     6    2
    14     6    26    1
    15    26    27   ar
    16    27    28   ar
    17    28    29   ar
    18    29    30   ar
    19    30    33    1
    20    33    35    1
    21    35    36    1
    22    36    37    1
    23    30    31   ar
    24    31    32    1
    25     6     7    1
    26     7     8    1
    27     8     9    2
    28     8    10   am
    29    10    11    1
    30    19    20    1
    31    20    21    1
    32    16    22    1
    33    22    23    1
    34    22    13    1
    35    21    16    1
    36    10     1    1
    37     7     3    1
    38    31    26   ar
    39    37    35    1
    40    33    34    1
    41    23    24    1
    42    23    25    1
@<TRIPOS>MOLECULE
*****
 37 42 0 0 0
SMALL
GASTEIGER

@<TRIPOS>ATOM
      1 C         139.5866  141.8304  160.7336 C.2     1  UNL1        0.4243
      2 N         140.3811  140.5581  160.7414 N.2     1  UNL1        0.0275
      3 C         140.4729  139.7389  161.9946 C.2     1  UNL1        0.3991
      4 N         141.1767  138.4505  162.3022 N.2     1  UNL1        0.0826
      5 N         140.9090  138.1073  163.7376 N.2     1  UNL1       -0.0375
      6 C         140.0397  139.1836  164.3172 C.2     1  UNL1        0.1283
      7 C         139.7702  140.1919  163.2400 C.3     1  UNL1        0.2504
      8 C         138.9757  141.4642  163.2321 C.2     1  UNL1        0.3055
      9 O         138.2730  141.9173  164.4775 O.2     1  UNL1       -0.2554
     10 N         138.8839  142.2834  161.9790 N.am    1  UNL1       -0.1358
     11 C         138.0894  143.5558  161.9711 C.3     1  UNL1        0.2167
     12 C         140.1690  147.2745  154.6481 C.3     1  UNL1        0.0335
     13 C         139.6632  146.0374  155.3289 C.3     1  UNL1        0.1294
     14 O         138.6763  145.0600  154.7623 O.3     1  UNL1       -0.3548
     15 C         138.4587  143.9788  155.7791 C.3     1  UNL1        0.1435
     16 C         139.3111  144.2880  156.9741 C.3     1  UNL1        0.0490
     17 C         138.5024  143.0320  157.1100 C.3     1  UNL1        0.0444
     18 C         138.5942  142.2129  158.3631 C.3     1  UNL1        0.1682
     19 N         139.4948  142.6496  159.4804 N.pl3   1  UNL1       -0.1900
     20 C         140.3035  143.9056  159.3445 C.3     1  UNL1        0.1682
     21 C         140.2116  144.7248  158.0913 C.3     1  UNL1        0.0444
     22 C         140.0555  145.5602  156.6958 C.3     1  UNL1        0.0808
     23 N         141.0224  146.2365  157.6219 N.3     1  UNL1       -0.3202
     24 H         141.1020  145.6967  158.4836 H       1  UNL1        0.1189
     25 H         140.6862  147.1749  157.8383 H       1  UNL1        0.1189
     26 C         139.5296  139.2413  165.7266 C.ar    1  UNL1        0.0333
     27 C         138.1922  138.6521  166.0647 C.ar    1  UNL1        0.0229
     28 C         137.6819  138.7098  167.4741 C.ar    1  UNL1        0.1004
     29 N         138.5091  139.3565  168.5453 N.ar    1  UNL1       -0.2285
     30 C         139.8465  139.9456  168.2072 C.ar    1  UNL1        0.1391
     31 C         140.3567  139.8880  166.7978 C.ar    1  UNL1        0.0902
     32 CL        141.6941  140.4771  166.4597 Cl      1  UNL1       -0.0793
     33 N         140.6736  140.5924  169.2783 N.pl3   1  UNL1       -0.3191
     34 H         141.4038  140.0901  169.7071 H       1  UNL1        0.1482
     35 C         140.3884  142.0045  169.6962 C.3     1  UNL1        0.0705
     36 C         139.7270  142.9746  170.6297 C.3     1  UNL1        0.0212
     37 C         140.5560  143.4803  169.4864 C.3     1  UNL1        0.0212
@<TRIPOS>BOND
     1    13    12    1
     2    13    14    1
     3    14    15    1
     4    15    16    1
     5    16    17    1
     6    17    18    1
     7    18    19    1
     8    19     1    1
     9     1     2    2
    10     2     3    1
    11     3     4    2
    12     4     5    1
    13     5     6    2
    14     6    26    1
    15    26    27   ar
    16    27    28   ar
    17    28    29   ar
    18    29    30   ar
    19    30    33    1
    20    33    35    1
    21    35    36    1
    22    36    37    1
    23    30    31   ar
    24    31    32    1
    25     6     7    1
    26     7     8    1
    27     8     9    2
    28     8    10   am
    29    10    11    1
    30    19    20    1
    31    20    21    1
    32    16    22    1
    33    22    23    1
    34    22    13    1
    35    21    16    1
    36    10     1    1
    37     7     3    1
    38    31    26   ar
    39    37    35    1
    40    33    34    1
    41    23    24    1
    42    23    25    1
@<TRIPOS>MOLECULE
*****
 37 42 0 0 0
SMALL
GASTEIGER

@<TRIPOS>ATOM
      1 C         140.1281  139.4045  160.0094 C.2     1  UNL1        0.4243
      2 N         138.9801  140.3625  160.1277 N.2     1  UNL1        0.0275
      3 C         138.4707  140.7591  161.4817 C.2     1  UNL1        0.3991
      4 N         137.3633  141.6764  161.9083 N.2     1  UNL1        0.0826
      5 N         137.3175  141.6819  163.4076 N.2     1  UNL1       -0.0375
      6 C         138.3967  140.7679  163.9076 C.2     1  UNL1        0.1283
      7 C         139.1094  140.1976  162.7174 C.3     1  UNL1        0.2504
      8 C         140.2575  139.2395  162.5990 C.2     1  UNL1        0.3055
      9 O         140.8962  138.6780  163.8346 O.2     1  UNL1       -0.2554
     10 N         140.7668  138.8430  161.2450 N.am    1  UNL1       -0.1358
     11 C         141.9150  137.8849  161.1266 C.3     1  UNL1        0.2167
     12 C         141.7026  136.1297  152.6740 C.3     1  UNL1        0.0335
     13 C         141.9117  137.0740  153.8204 C.3     1  UNL1        0.1294
     14 O         142.9688  138.1348  153.9073 O.3     1  UNL1       -0.3548
     15 C         142.8109  138.8398  155.2220 C.3     1  UNL1        0.1435
     16 C         141.6563  138.2147  155.9475 C.3     1  UNL1        0.0490
     17 C         142.3170  139.3316  156.6998 C.3     1  UNL1        0.0444
     18 C         141.8076  139.7282  158.0537 C.3     1  UNL1        0.1682
     19 N         140.6375  139.0078  158.6554 N.pl3   1  UNL1       -0.1900
     20 C         139.9768  137.8909  157.9031 C.3     1  UNL1        0.1682
     21 C         140.4863  137.4944  156.5491 C.3     1  UNL1        0.0444
     22 C         141.1006  137.1234  155.0812 C.3     1  UNL1        0.0808
     23 N         139.9380  136.2372  155.4169 N.3     1  UNL1       -0.3202
     24 H         139.5733  136.4883  156.3358 H       1  UNL1        0.1189
     25 H         140.2439  135.2642  155.4268 H       1  UNL1        0.1189
     26 C         138.7084  140.4756  165.3455 C.ar    1  UNL1        0.0333
     27 C         138.0394  139.3262  166.0392 C.ar    1  UNL1        0.0229
     28 C         138.3510  139.0339  167.4770 C.ar    1  UNL1        0.1004
     29 N         139.3317  139.8909  168.2212 N.ar    1  UNL1       -0.2285
     30 C         140.0007  141.0403  167.5274 C.ar    1  UNL1        0.1391
     31 C         139.6891  141.3327  166.0896 C.ar    1  UNL1        0.0902
     32 CL        140.3581  142.4821  165.3959 Cl      1  UNL1       -0.0793
     33 N         140.9814  141.8974  168.2715 N.pl3   1  UNL1       -0.3191
     34 H         141.9333  141.8876  168.0205 H       1  UNL1        0.1482
     35 C         140.5117  142.7695  169.3980 C.3     1  UNL1        0.0705
     36 C         140.4929  144.1003  170.0898 C.3     1  UNL1        0.0212
     37 C         139.7169  142.9489  170.6574 C.3     1  UNL1        0.0212
@<TRIPOS>BOND
     1    13    12    1
     2    13    14    1
     3    14    15    1
     4    15    16    1
     5    16    17    1
     6    17    18    1
     7    18    19    1
     8    19     1    1
     9     1     2    2
    10     2     3    1
    11     3     4    2
    12     4     5    1
    13     5     6    2
    14     6    26    1
    15    26    27   ar
    16    27    28   ar
    17    28    29   ar
    18    29    30   ar
    19    30    33    1
    20    33    35    1
    21    35    36    1
    22    36    37    1
    23    30    31   ar
    24    31    32    1
    25     6     7    1
    26     7     8    1
    27     8     9    2
    28     8    10   am
    29    10    11    1
    30    19    20    1
    31    20    21    1
    32    16    22    1
    33    22    23    1
    34    22    13    1
    35    21    16    1
    36    10     1    1
    37     7     3    1
    38    31    26   ar
    39    37    35    1
    40    33    34    1
    41    23    24    1
    42    23    25    1
@<TRIPOS>MOLECULE
*****
 37 42 0 0 0
SMALL
GASTEIGER

@<TRIPOS>ATOM
      1 C         140.3055  138.9396  162.0681 C.2     1  UNL1        0.4243
      2 N         139.3163  139.2358  160.9801 N.2     1  UNL1        0.0275
      3 C         139.7208  139.1021  159.5418 C.2     1  UNL1        0.3991
      4 N         138.9691  139.3241  158.2630 N.2     1  UNL1        0.0826
      5 N         139.8983  139.0315  157.1223 N.2     1  UNL1       -0.0375
      6 C         141.2243  138.6286  157.6963 C.2     1  UNL1        0.1283
      7 C         141.1146  138.6722  159.1916 C.3     1  UNL1        0.2504
      8 C         142.1038  138.3761  160.2797 C.2     1  UNL1        0.3055
      9 O         143.4976  137.9462  159.9294 O.2     1  UNL1       -0.2554
     10 N         141.6993  138.5098  161.7178 N.am    1  UNL1       -0.1358
     11 C         142.6885  138.2136  162.8059 C.3     1  UNL1        0.2167
     12 C         139.3039  140.7783  169.9818 C.3     1  UNL1        0.0335
     13 C         139.0034  140.0629  168.6982 C.3     1  UNL1        0.1294
     14 O         137.9353  139.0296  168.4938 O.3     1  UNL1       -0.3548
     15 C         137.9900  138.5832  167.0627 C.3     1  UNL1        0.1435
     16 C         139.0919  139.3406  166.3827 C.3     1  UNL1        0.0490
     17 C         138.3692  138.3790  165.4866 C.3     1  UNL1        0.0444
     18 C         138.7738  138.2453  164.0484 C.3     1  UNL1        0.1682
     19 N         139.9010  139.0733  163.5063 N.pl3   1  UNL1       -0.1900
     20 C         140.6236  140.0349  164.4024 C.3     1  UNL1        0.1682
     21 C         140.2191  140.1685  165.8406 C.3     1  UNL1        0.0444
     22 C         139.7181  140.2550  167.3935 C.3     1  UNL1        0.0808
     23 N         140.8589  141.1964  167.1434 N.3     1  UNL1       -0.3202
     24 H         141.1525  141.1235  166.1693 H       1  UNL1        0.1189
     25 H         141.6399  140.9537  167.7530 H       1  UNL1        0.1189
     26 C         142.4455  138.2488  156.9125 C.ar    1  UNL1        0.0333
     27 C         142.5712  136.8669  156.3428 C.ar    1  UNL1        0.0229
     28 C         143.7924  136.4870  155.5589 C.ar    1  UNL1        0.1004
     29 N         144.8879  137.4890  155.3448 N.ar    1  UNL1       -0.2285
     30 C         144.7622  138.8709  155.9145 C.ar    1  UNL1        0.1391
     31 C         143.5410  139.2508  156.6983 C.ar    1  UNL1        0.0902
     32 CL        143.4153  140.6327  157.2680 Cl      1  UNL1       -0.0793
     33 N         145.8576  139.8730  155.7004 N.pl3   1  UNL1       -0.3191
     34 H         146.6498  139.8686  156.2848 H       1  UNL1        0.1482
     35 C         145.7460  140.8817  154.5958 C.3     1  UNL1        0.0705
     36 C         145.8019  141.2208  153.1357 C.3     1  UNL1        0.0212
     37 C         145.4967  142.2897  154.1428 C.3     1  UNL1        0.0212
@<TRIPOS>BOND
     1    13    12    1
     2    13    14    1
     3    14    15    1
     4    15    16    1
     5    16    17    1
     6    17    18    1
     7    18    19    1
     8    19     1    1
     9     1     2    2
    10     2     3    1
    11     3     4    2
    12     4     5    1
    13     5     6    2
    14     6    26    1
    15    26    27   ar
    16    27    28   ar
    17    28    29   ar
    18    29    30   ar
    19    30    33    1
    20    33    35    1
    21    35    36    1
    22    36    37    1
    23    30    31   ar
    24    31    32    1
    25     6     7    1
    26     7     8    1
    27     8     9    2
    28     8    10   am
    29    10    11    1
    30    19    20    1
    31    20    21    1
    32    16    22    1
    33    22    23    1
    34    22    13    1
    35    21    16    1
    36    10     1    1
    37     7     3    1
    38    31    26   ar
    39    37    35    1
    40    33    34    1
    41    23    24    1
    42    23    25    1
@<TRIPOS>MOLECULE
*****
 37 42 0 0 0
SMALL
GASTEIGER

@<TRIPOS>ATOM
      1 C         140.0262  143.3010  159.7513 C.2     1  UNL1        0.4243
      2 N         138.6552  142.9618  160.2564 N.2     1  UNL1        0.0275
      3 C         138.4895  142.3165  161.6005 C.2     1  UNL1        0.3991
      4 N         137.2733  141.8706  162.3566 N.2     1  UNL1        0.0826
      5 N         137.7269  141.2890  163.6627 N.2     1  UNL1       -0.0375
      6 C         139.2235  141.3755  163.7137 C.2     1  UNL1        0.1283
      7 C         139.6948  142.0106  162.4392 C.3     1  UNL1        0.2504
      8 C         141.0659  142.3499  161.9340 C.2     1  UNL1        0.3055
      9 O         142.2712  142.0439  162.7728 O.2     1  UNL1       -0.2554
     10 N         141.2315  142.9951  160.5901 N.am    1  UNL1       -0.1358
     11 C         142.6026  143.3343  160.0848 C.3     1  UNL1        0.2167
     12 C         140.3947  148.1702  153.1812 C.3     1  UNL1        0.0335
     13 C         140.5404  146.8816  153.9349 C.3     1  UNL1        0.1294
     14 O         141.0164  145.5772  153.3673 O.3     1  UNL1       -0.3548
     15 C         141.0059  144.5604  154.4702 C.3     1  UNL1        0.1435
     16 C         140.5234  145.2365  155.7193 C.3     1  UNL1        0.0490
     17 C         140.8527  143.7843  155.8999 C.3     1  UNL1        0.0444
     18 C         140.6870  143.1392  157.2438 C.3     1  UNL1        0.1682
     19 N         140.1919  143.9462  158.4073 N.pl3   1  UNL1       -0.1900
     20 C         139.8626  145.3984  158.2267 C.3     1  UNL1        0.1682
     21 C         140.0283  146.0436  156.8828 C.3     1  UNL1        0.0444
     22 C         140.2357  146.6711  155.3884 C.3     1  UNL1        0.0808
     23 N         139.7319  147.7122  156.3434 N.3     1  UNL1       -0.3202
     24 H         139.6109  147.2963  157.2669 H       1  UNL1        0.1189
     25 H         138.8366  148.0721  156.0127 H       1  UNL1        0.1189
     26 C         140.0957  140.9089  164.8414 C.ar    1  UNL1        0.0333
     27 C         140.4960  139.4662  164.9324 C.ar    1  UNL1        0.0229
     28 C         141.3681  138.9994  166.0600 C.ar    1  UNL1        0.1004
     29 N         141.8399  139.9755  167.0967 N.ar    1  UNL1       -0.2285
     30 C         141.4396  141.4182  167.0058 C.ar    1  UNL1        0.1391
     31 C         140.5675  141.8849  165.8781 C.ar    1  UNL1        0.0902
     32 CL        140.1672  143.3276  165.7872 Cl      1  UNL1       -0.0793
     33 N         141.9114  142.3942  168.0424 N.pl3   1  UNL1       -0.3191
     34 H         142.8394  142.7223  168.0234 H       1  UNL1        0.1482
     35 C         140.9692  142.8705  169.1081 C.3     1  UNL1        0.0705
     36 C         140.3478  143.9924  169.8859 C.3     1  UNL1        0.0212
     37 C         139.9587  142.5731  170.1760 C.3     1  UNL1        0.0212
@<TRIPOS>BOND
     1    13    12    1
     2    13    14    1
     3    14    15    1
     4    15    16    1
     5    16    17    1
     6    17    18    1
     7    18    19    1
     8    19     1    1
     9     1     2    2
    10     2     3    1
    11     3     4    2
    12     4     5    1
    13     5     6    2
    14     6    26    1
    15    26    27   ar
    16    27    28   ar
    17    28    29   ar
    18    29    30   ar
    19    30    33    1
    20    33    35    1
    21    35    36    1
    22    36    37    1
    23    30    31   ar
    24    31    32    1
    25     6     7    1
    26     7     8    1
    27     8     9    2
    28     8    10   am
    29    10    11    1
    30    19    20    1
    31    20    21    1
    32    16    22    1
    33    22    23    1
    34    22    13    1
    35    21    16    1
    36    10     1    1
    37     7     3    1
    38    31    26   ar
    39    37    35    1
    40    33    34    1
    41    23    24    1
    42    23    25    1
@<TRIPOS>MOLECULE
*****
 37 42 0 0 0
SMALL
GASTEIGER

@<TRIPOS>ATOM
      1 C         142.7255  138.4532  156.9530 C.2     1  UNL1        0.4243
      2 N         144.0120  139.2243  156.9361 N.2     1  UNL1        0.0275
      3 C         144.0581  140.6185  157.4875 C.2     1  UNL1        0.3991
      4 N         145.1730  141.6149  157.6054 N.2     1  UNL1        0.0826
      5 N         144.6217  142.8538  158.2466 N.2     1  UNL1       -0.0375
      6 C         143.1660  142.6231  158.5249 C.2     1  UNL1        0.1283
      7 C         142.8176  141.2417  158.0558 C.3     1  UNL1        0.2504
      8 C         141.5310  140.4705  158.0727 C.2     1  UNL1        0.3055
      9 O         140.2906  141.0937  158.6410 O.2     1  UNL1       -0.2554
     10 N         141.4850  139.0764  157.5213 N.am    1  UNL1       -0.1358
     11 C         140.1985  138.3052  157.5382 C.3     1  UNL1        0.2167
     12 C         142.7516  130.3978  155.4970 C.3     1  UNL1        0.0335
     13 C         142.6416  131.8495  155.1364 C.3     1  UNL1        0.1294
     14 O         142.3910  132.4006  153.7639 O.3     1  UNL1       -0.3548
     15 C         142.3574  133.8970  153.8643 C.3     1  UNL1        0.1435
     16 C         142.5872  134.2706  155.2987 C.3     1  UNL1        0.0490
     17 C         142.3932  135.4449  154.3859 C.3     1  UNL1        0.0444
     18 C         142.4393  136.8391  154.9373 C.3     1  UNL1        0.1682
     19 N         142.6794  137.0590  156.4016 N.pl3   1  UNL1       -0.1900
     20 C         142.8734  135.8846  157.3144 C.3     1  UNL1        0.1682
     21 C         142.8273  134.4905  156.7630 C.3     1  UNL1        0.0444
     22 C         142.7629  133.0052  156.0849 C.3     1  UNL1        0.0808
     23 N         143.0154  132.9120  157.5605 N.3     1  UNL1       -0.3202
     24 H         143.0511  133.8501  157.9593 H       1  UNL1        0.1189
     25 H         143.9042  132.4390  157.7242 H       1  UNL1        0.1189
     26 C         142.2240  143.6021  159.1608 C.ar    1  UNL1        0.0333
     27 C         141.3484  144.4662  158.3024 C.ar    1  UNL1        0.0229
     28 C         140.4065  145.4452  158.9382 C.ar    1  UNL1        0.1004
     29 N         140.3400  145.5602  160.4323 N.ar    1  UNL1       -0.2285
     30 C         141.2155  144.6961  161.2906 C.ar    1  UNL1        0.1391
     31 C         142.1575  143.7170  160.6549 C.ar    1  UNL1        0.0902
     32 CL        143.0331  142.8530  161.5132 Cl      1  UNL1       -0.0793
     33 N         141.1491  144.8109  162.7847 N.pl3   1  UNL1       -0.3191
     34 H         141.9723  144.9588  163.3041 H       1  UNL1        0.1482
     35 C         139.8285  144.7005  163.4875 C.3     1  UNL1        0.0705
     36 C         139.0147  144.7870  164.7445 C.3     1  UNL1        0.0212
     37 C         138.3550  144.4228  163.4475 C.3     1  UNL1        0.0212
@<TRIPOS>BOND
     1    13    12    1
     2    13    14    1
     3    14    15    1
     4    15    16    1
     5    16    17    1
     6    17    18    1
     7    18    19    1
     8    19     1    1
     9     1     2    2
    10     2     3    1
    11     3     4    2
    12     4     5    1
    13     5     6    2
    14     6    26    1
    15    26    27   ar
    16    27    28   ar
    17    28    29   ar
    18    29    30   ar
    19    30    33    1
    20    33    35    1
    21    35    36    1
    22    36    37    1
    23    30    31   ar
    24    31    32    1
    25     6     7    1
    26     7     8    1
    27     8     9    2
    28     8    10   am
    29    10    11    1
    30    19    20    1
    31    20    21    1
    32    16    22    1
    33    22    23    1
    34    22    13    1
    35    21    16    1
    36    10     1    1
    37     7     3    1
    38    31    26   ar
    39    37    35    1
    40    33    34    1
    41    23    24    1
    42    23    25    1
@<TRIPOS>MOLECULE
*****
 37 42 0 0 0
SMALL
GASTEIGER

@<TRIPOS>ATOM
      1 C         140.8842  140.3992  162.0019 C.2     1  UNL1        0.4243
      2 N         140.1149  141.2402  161.0268 N.2     1  UNL1        0.0275
      3 C         140.6530  141.4682  159.6452 C.2     1  UNL1        0.3991
      4 N         140.1222  142.2445  158.4768 N.2     1  UNL1        0.0826
      5 N         141.1013  142.1113  157.3483 N.2     1  UNL1       -0.0375
      6 C         142.2374  141.2525  157.8194 C.2     1  UNL1        0.1283
      7 C         141.9603  140.8551  159.2389 C.3     1  UNL1        0.2504
      8 C         142.7296  140.0141  160.2142 C.2     1  UNL1        0.3055
      9 O         144.0369  139.4010  159.8079 O.2     1  UNL1       -0.2554
     10 N         142.1915  139.7862  161.5956 N.am    1  UNL1       -0.1358
     11 C         142.9607  138.9451  162.5709 C.3     1  UNL1        0.2167
     12 C         138.9880  140.3499  169.9652 C.3     1  UNL1        0.0335
     13 C         138.8930  139.9023  168.5368 C.3     1  UNL1        0.1294
     14 O         137.9907  138.8270  168.0079 O.3     1  UNL1       -0.3548
     15 C         138.2237  138.7115  166.5305 C.3     1  UNL1        0.1435
     16 C         139.2699  139.7154  166.1464 C.3     1  UNL1        0.0490
     17 C         138.7576  138.8982  164.9977 C.3     1  UNL1        0.0444
     18 C         139.2957  139.1261  163.6162 C.3     1  UNL1        0.1682
     19 N         140.3461  140.1713  163.3835 N.pl3   1  UNL1       -0.1900
     20 C         140.8584  140.9886  164.5322 C.3     1  UNL1        0.1682
     21 C         140.3203  140.7606  165.9136 C.3     1  UNL1        0.0444
     22 C         139.6836  140.4513  167.3863 C.3     1  UNL1        0.0808
     23 N         140.7079  141.5444  167.4623 N.3     1  UNL1       -0.3202
     24 H         141.0894  141.7181  166.5324 H       1  UNL1        0.1189
     25 H         141.4599  141.2625  168.0911 H       1  UNL1        0.1189
     26 C         143.4395  140.8602  157.0125 C.ar    1  UNL1        0.0333
     27 C         143.3519  139.7191  156.0428 C.ar    1  UNL1        0.0229
     28 C         144.5540  139.3267  155.2358 C.ar    1  UNL1        0.1004
     29 N         145.8435  140.0754  155.3986 N.ar    1  UNL1       -0.2285
     30 C         145.9311  141.2164  156.3683 C.ar    1  UNL1        0.1391
     31 C         144.7291  141.6088  157.1752 C.ar    1  UNL1        0.0902
     32 CL        144.8166  142.7499  158.1449 Cl      1  UNL1       -0.0793
     33 N         147.2206  141.9651  156.5311 N.pl3   1  UNL1       -0.3191
     34 H         147.3649  142.5303  157.3242 H       1  UNL1        0.1482
     35 C         148.2903  141.8527  155.4855 C.3     1  UNL1        0.0705
     36 C         149.7192  141.5906  155.1118 C.3     1  UNL1        0.0212
     37 C         148.7140  141.9200  154.0482 C.3     1  UNL1        0.0212
@<TRIPOS>BOND
     1    13    12    1
     2    13    14    1
     3    14    15    1
     4    15    16    1
     5    16    17    1
     6    17    18    1
     7    18    19    1
     8    19     1    1
     9     1     2    2
    10     2     3    1
    11     3     4    2
    12     4     5    1
    13     5     6    2
    14     6    26    1
    15    26    27   ar
    16    27    28   ar
    17    28    29   ar
    18    29    30   ar
    19    30    33    1
    20    33    35    1
    21    35    36    1
    22    36    37    1
    23    30    31   ar
    24    31    32    1
    25     6     7    1
    26     7     8    1
    27     8     9    2
    28     8    10   am
    29    10    11    1
    30    19    20    1
    31    20    21    1
    32    16    22    1
    33    22    23    1
    34    22    13    1
    35    21    16    1
    36    10     1    1
    37     7     3    1
    38    31    26   ar
    39    37    35    1
    40    33    34    1
    41    23    24    1
    42    23    25    1
@<TRIPOS>MOLECULE
*****
 37 42 0 0 0
SMALL
GASTEIGER

@<TRIPOS>ATOM
      1 C         139.3313  140.4554  162.4471 C.2     1  UNL1        0.4243
      2 N         139.4858  139.2765  161.5326 N.2     1  UNL1        0.0275
      3 C         139.2303  139.4293  160.0624 C.2     1  UNL1        0.3991
      4 N         139.3016  138.4544  158.9247 N.2     1  UNL1        0.0826
      5 N         138.9357  139.1834  157.6659 N.2     1  UNL1       -0.0375
      6 C         138.6383  140.6089  158.0257 C.2     1  UNL1        0.1283
      7 C         138.8204  140.7609  159.5067 C.3     1  UNL1        0.2504
      8 C         138.6659  141.9398  160.4213 C.2     1  UNL1        0.3055
      9 O         138.2559  143.2714  159.8657 O.2     1  UNL1       -0.2554
     10 N         138.9213  141.7870  161.8915 N.am    1  UNL1       -0.1358
     11 C         138.7668  142.9659  162.8061 C.3     1  UNL1        0.2167
     12 C         142.2916  139.8765  170.0571 C.3     1  UNL1        0.0335
     13 C         141.2235  139.8716  169.0041 C.3     1  UNL1        0.1294
     14 O         139.7577  139.6529  169.2361 O.3     1  UNL1       -0.3548
     15 C         139.0618  139.7305  167.9094 C.3     1  UNL1        0.1435
     16 C         140.0975  139.9972  166.8576 C.3     1  UNL1        0.0490
     17 C         138.7005  139.8842  166.3234 C.3     1  UNL1        0.0444
     18 C         138.4451  140.0369  164.8533 C.3     1  UNL1        0.1682
     19 N         139.5867  140.3027  163.9173 N.pl3   1  UNL1       -0.1900
     20 C         140.9838  140.4157  164.4515 C.3     1  UNL1        0.1682
     21 C         141.2392  140.2630  165.9217 C.3     1  UNL1        0.0444
     22 C         141.4335  140.0844  167.5342 C.3     1  UNL1        0.0808
     23 N         142.7485  140.3395  166.8593 N.3     1  UNL1       -0.3202
     24 H         142.6004  140.4472  165.8559 H       1  UNL1        0.1189
     25 H         143.3756  139.5529  167.0280 H       1  UNL1        0.1189
     26 C         138.2304  141.6923  157.0717 C.ar    1  UNL1        0.0333
     27 C         136.8201  141.7528  156.5642 C.ar    1  UNL1        0.0229
     28 C         136.4122  142.8361  155.6103 C.ar    1  UNL1        0.1004
     29 N         137.4144  143.8589  155.1638 N.ar    1  UNL1       -0.2285
     30 C         138.8247  143.7984  155.6712 C.ar    1  UNL1        0.1391
     31 C         139.2327  142.7151  156.6252 C.ar    1  UNL1        0.0902
     32 CL        140.6429  142.6545  157.1327 Cl      1  UNL1       -0.0793
     33 N         139.8270  144.8211  155.2248 N.pl3   1  UNL1       -0.3191
     34 H         140.6880  144.5330  154.8442 H       1  UNL1        0.1482
     35 C         139.5175  146.2827  155.3583 C.3     1  UNL1        0.0705
     36 C         139.4319  147.6530  154.7541 C.3     1  UNL1        0.0212
     37 C         139.0669  147.4441  156.1939 C.3     1  UNL1        0.0212
@<TRIPOS>BOND
     1    13    12    1
     2    13    14    1
     3    14    15    1
     4    15    16    1
     5    16    17    1
     6    17    18    1
     7    18    19    1
     8    19     1    1
     9     1     2    2
    10     2     3    1
    11     3     4    2
    12     4     5    1
    13     5     6    2
    14     6    26    1
    15    26    27   ar
    16    27    28   ar
    17    28    29   ar
    18    29    30   ar
    19    30    33    1
    20    33    35    1
    21    35    36    1
    22    36    37    1
    23    30    31   ar
    24    31    32    1
    25     6     7    1
    26     7     8    1
    27     8     9    2
    28     8    10   am
    29    10    11    1
    30    19    20    1
    31    20    21    1
    32    16    22    1
    33    22    23    1
    34    22    13    1
    35    21    16    1
    36    10     1    1
    37     7     3    1
    38    31    26   ar
    39    37    35    1
    40    33    34    1
    41    23    24    1
    42    23    25    1
