@<TRIPOS>MOLECULE
*****
 35 38 0 0 0
SMALL
GASTEIGER

@<TRIPOS>ATOM
      1 C         141.4413  141.9706  167.6870 C.3     1  UNL1        0.0658
      2 C         142.1771  140.9268  168.4738 C.3     1  UNL1        0.0280
      3 C         141.9227  140.7785  169.9446 C.3     1  UNL1        0.0590
      4 S         140.9326  141.6741  170.6286 S.3     1  UNL1       -0.1402
      5 C         140.1969  142.7179  169.8418 C.3     1  UNL1        0.0590
      6 C         140.4512  142.8661  168.3710 C.3     1  UNL1        0.0280
      7 N         142.2766  141.3645  166.5984 N.3     1  UNL1       -0.2711
      8 C         143.0040  142.2496  165.6302 C.3     1  UNL1        0.0897
      9 C         143.8393  141.6435  164.5417 C.3     1  UNL1        0.0899
     10 N         143.9472  140.1522  164.4214 N.3     1  UNL1       -0.2665
     11 C         143.2198  139.2671  165.3896 C.3     1  UNL1        0.0899
     12 C         142.3845  139.8732  166.4781 C.3     1  UNL1        0.0897
     13 C         144.7825  139.5461  163.3328 C.3     1  UNL1        0.0992
     14 C         144.1753  139.2639  161.9906 C.ar    1  UNL1       -0.0061
     15 C         143.7670  137.8660  161.6311 C.ar    1  UNL1       -0.0029
     16 C         143.1598  137.5838  160.2887 C.ar    1  UNL1       -0.0003
     17 C         142.9610  138.6994  159.3060 C.ar    1  UNL1       -0.0000
     18 C         143.3693  140.0973  159.6655 C.ar    1  UNL1       -0.0003
     19 C         143.9765  140.3795  161.0077 C.ar    1  UNL1       -0.0029
     20 C         140.9956  142.8039  166.5220 C.3     1  UNL1        0.1142
     21 C         138.8493  143.5031  165.2359 C.2     1  UNL1        0.2304
     22 O         139.1820  144.9476  165.4660 O.2     1  UNL1       -0.2745
     23 N         139.7562  142.4313  165.7640 N.am    1  UNL1       -0.2425
     24 C         139.4235  140.9869  165.5339 C.ar    1  UNL1        0.1373
     25 C         138.7493  140.1916  166.6123 C.ar    1  UNL1        0.0347
     26 C         138.4166  138.7471  166.3822 C.ar    1  UNL1        0.0044
     27 C         138.7581  138.0981  165.0737 C.ar    1  UNL1        0.0232
     28 C         139.4322  138.8934  163.9954 C.ar    1  UNL1        0.1540
     29 N         139.7650  140.3378  164.2254 N.ar    1  UNL1       -0.2263
     30 C         139.7738  138.2443  162.6868 C.3     1  UNL1        0.4349
     31 F         140.1152  137.5953  161.3783 F       1  UNL1       -0.1644
     32 F         140.8578  139.2575  162.4672 F       1  UNL1       -0.1644
     33 F         138.6897  137.2312  162.9065 F       1  UNL1       -0.1644
     34 C         137.6289  143.0984  162.9783 C.3     1  UNL1        0.0101
     35 C         137.6097  143.1306  164.4778 C.3     1  UNL1        0.0857
@<TRIPOS>BOND
     1    34    35    1
     2    35    21    1
     3    21    22    2
     4    21    23   am
     5    23    20    1
     6    20     1    1
     7     1     7    1
     8     7     8    1
     9     8     9    1
    10     9    10    1
    11    10    13    1
    12    13    14    1
    13    14    15   ar
    14    15    16   ar
    15    16    17   ar
    16    17    18   ar
    17    18    19   ar
    18    10    11    1
    19    11    12    1
    20     1     2    1
    21     2     3    1
    22     3     4    1
    23     4     5    1
    24     5     6    1
    25    23    24    1
    26    24    25   ar
    27    25    26   ar
    28    26    27   ar
    29    27    28   ar
    30    28    30    1
    31    30    31    1
    32    30    32    1
    33    30    33    1
    34    28    29   ar
    35     6     1    1
    36    29    24   ar
    37    12     7    1
    38    19    14   ar
@<TRIPOS>MOLECULE
*****
 35 38 0 0 0
SMALL
GASTEIGER

@<TRIPOS>ATOM
      1 C         141.4060  141.9614  167.6596 C.3     1  UNL1        0.0658
      2 C         142.0806  140.8633  168.4269 C.3     1  UNL1        0.0280
      3 C         141.7787  140.6712  169.8836 C.3     1  UNL1        0.0590
      4 S         140.8022  141.5775  170.5730 S.3     1  UNL1       -0.1402
      5 C         140.1275  142.6756  169.8057 C.3     1  UNL1        0.0590
      6 C         140.4294  142.8676  168.3490 C.3     1  UNL1        0.0280
      7 N         142.2500  141.3647  166.5726 N.3     1  UNL1       -0.2711
      8 C         142.3569  139.8745  166.4387 C.3     1  UNL1        0.0897
      9 C         143.2009  139.2778  165.3517 C.3     1  UNL1        0.0899
     10 N         143.9380  140.1713  164.3987 N.3     1  UNL1       -0.2665
     11 C         143.8311  141.6614  164.5325 C.3     1  UNL1        0.0899
     12 C         142.9871  142.2581  165.6195 C.3     1  UNL1        0.0897
     13 C         144.7821  139.5745  163.3116 C.3     1  UNL1        0.0992
     14 C         144.1770  139.2720  161.9729 C.ar    1  UNL1       -0.0061
     15 C         144.0850  140.3472  160.9311 C.ar    1  UNL1       -0.0029
     16 C         143.4799  140.0446  159.5923 C.ar    1  UNL1       -0.0003
     17 C         142.9667  138.6668  159.2954 C.ar    1  UNL1       -0.0000
     18 C         143.0586  137.5915  160.3372 C.ar    1  UNL1       -0.0003
     19 C         143.6638  137.8941  161.6759 C.ar    1  UNL1       -0.0029
     20 C         141.0244  142.8524  166.5147 C.3     1  UNL1        0.1142
     21 C         138.8659  143.6313  165.2966 C.2     1  UNL1        0.2304
     22 O         139.1316  145.0430  165.7285 O.2     1  UNL1       -0.2745
     23 N         139.8123  142.5360  165.6898 N.am    1  UNL1       -0.2425
     24 C         139.5466  141.1242  165.2579 C.ar    1  UNL1        0.1373
     25 C         140.0191  140.6490  163.9160 C.ar    1  UNL1        0.0347
     26 C         139.7534  139.2373  163.4841 C.ar    1  UNL1        0.0044
     27 C         139.0152  138.3009  164.3942 C.ar    1  UNL1        0.0232
     28 C         138.5428  138.7762  165.7362 C.ar    1  UNL1        0.1540
     29 N         138.8084  140.1879  166.1681 N.ar    1  UNL1       -0.2263
     30 C         137.8046  137.8398  166.6463 C.3     1  UNL1        0.4349
     31 F         137.0664  136.9034  167.5564 F       1  UNL1       -0.1644
     32 F         137.4231  138.9944  167.5246 F       1  UNL1       -0.1644
     33 F         138.1861  136.6853  165.7680 F       1  UNL1       -0.1644
     34 C         137.6816  143.5242  162.9866 C.3     1  UNL1        0.0101
     35 C         137.6537  143.3149  164.4717 C.3     1  UNL1        0.0857
@<TRIPOS>BOND
     1    34    35    1
     2    35    21    1
     3    21    22    2
     4    21    23   am
     5    23    20    1
     6    20     1    1
     7     1     7    1
     8     7     8    1
     9     8     9    1
    10     9    10    1
    11    10    13    1
    12    13    14    1
    13    14    15   ar
    14    15    16   ar
    15    16    17   ar
    16    17    18   ar
    17    18    19   ar
    18    10    11    1
    19    11    12    1
    20     1     2    1
    21     2     3    1
    22     3     4    1
    23     4     5    1
    24     5     6    1
    25    23    24    1
    26    24    25   ar
    27    25    26   ar
    28    26    27   ar
    29    27    28   ar
    30    28    30    1
    31    30    31    1
    32    30    32    1
    33    30    33    1
    34    28    29   ar
    35     6     1    1
    36    29    24   ar
    37    12     7    1
    38    19    14   ar
@<TRIPOS>MOLECULE
*****
 35 38 0 0 0
SMALL
GASTEIGER

@<TRIPOS>ATOM
      1 C         139.5200  140.6464  162.2933 C.3     1  UNL1        0.0658
      2 C         140.1279  139.3265  161.9216 C.3     1  UNL1        0.0280
      3 C         139.8484  138.7243  160.5766 C.3     1  UNL1        0.0590
      4 S         138.9610  139.4421  159.6032 S.3     1  UNL1       -0.1402
      5 C         138.3531  140.7620  159.9749 C.3     1  UNL1        0.0590
      6 C         138.6326  141.3642  161.3200 C.3     1  UNL1        0.0280
      7 N         140.2890  140.3515  163.5471 N.3     1  UNL1       -0.2711
      8 C         139.6134  140.4518  164.8825 C.3     1  UNL1        0.0897
      9 C         140.3824  140.1569  166.1361 C.3     1  UNL1        0.0899
     10 N         141.8271  139.7617  166.0543 N.3     1  UNL1       -0.2665
     11 C         142.5028  139.6615  164.7189 C.3     1  UNL1        0.0899
     12 C         141.7338  139.9564  163.4653 C.3     1  UNL1        0.0897
     13 C         142.5961  139.4668  167.3080 C.3     1  UNL1        0.0992
     14 C         142.4346  140.3473  168.5115 C.ar    1  UNL1       -0.0061
     15 C         141.6895  139.8460  169.7130 C.ar    1  UNL1       -0.0029
     16 C         141.5280  140.7266  170.9166 C.ar    1  UNL1       -0.0003
     17 C         142.1115  142.1084  170.9187 C.ar    1  UNL1       -0.0000
     18 C         142.8566  142.6097  169.7172 C.ar    1  UNL1       -0.0003
     19 C         143.0181  141.7292  168.5137 C.ar    1  UNL1       -0.0029
     20 C         139.1792  141.8640  163.1005 C.3     1  UNL1        0.1142
     21 C         139.0061  144.4068  162.5963 C.2     1  UNL1        0.2304
     22 O         137.5121  144.3263  162.7037 O.2     1  UNL1       -0.2745
     23 N         139.8396  143.1756  162.7947 N.am    1  UNL1       -0.2425
     24 C         141.3337  143.2560  162.6873 C.ar    1  UNL1        0.1373
     25 C         142.0004  143.0791  161.3553 C.ar    1  UNL1        0.0347
     26 C         143.4944  143.1595  161.2479 C.ar    1  UNL1        0.0044
     27 C         144.3216  143.4169  162.4725 C.ar    1  UNL1        0.0232
     28 C         143.6548  143.5937  163.8044 C.ar    1  UNL1        0.1540
     29 N         142.1608  143.5133  163.9118 N.ar    1  UNL1       -0.2263
     30 C         144.4820  143.8511  165.0290 C.3     1  UNL1        0.4349
     31 F         145.3092  144.1084  166.2536 F       1  UNL1       -0.1644
     32 F         144.6352  142.3733  165.2360 F       1  UNL1       -0.1644
     33 F         144.3288  145.3288  164.8220 F       1  UNL1       -0.1644
     34 C         139.9279  146.1127  160.8670 C.3     1  UNL1        0.0101
     35 C         139.6665  145.7184  162.2904 C.3     1  UNL1        0.0857
@<TRIPOS>BOND
     1    34    35    1
     2    35    21    1
     3    21    22    2
     4    21    23   am
     5    23    20    1
     6    20     1    1
     7     1     7    1
     8     7     8    1
     9     8     9    1
    10     9    10    1
    11    10    13    1
    12    13    14    1
    13    14    15   ar
    14    15    16   ar
    15    16    17   ar
    16    17    18   ar
    17    18    19   ar
    18    10    11    1
    19    11    12    1
    20     1     2    1
    21     2     3    1
    22     3     4    1
    23     4     5    1
    24     5     6    1
    25    23    24    1
    26    24    25   ar
    27    25    26   ar
    28    26    27   ar
    29    27    28   ar
    30    28    30    1
    31    30    31    1
    32    30    32    1
    33    30    33    1
    34    28    29   ar
    35     6     1    1
    36    29    24   ar
    37    12     7    1
    38    19    14   ar
@<TRIPOS>MOLECULE
*****
 35 38 0 0 0
SMALL
GASTEIGER

@<TRIPOS>ATOM
      1 C         140.8194  141.4633  167.7384 C.3     1  UNL1        0.0658
      2 C         141.9325  142.2774  168.3283 C.3     1  UNL1        0.0280
      3 C         142.4159  141.9905  169.7190 C.3     1  UNL1        0.0590
      4 S         141.7861  140.8895  170.5197 S.3     1  UNL1       -0.1402
      5 C         140.6729  140.0754  169.9298 C.3     1  UNL1        0.0590
      6 C         140.1895  140.3623  168.5391 C.3     1  UNL1        0.0280
      7 N         141.0959  142.3938  166.5948 N.3     1  UNL1       -0.2711
      8 C         142.4941  142.5471  166.0738 C.3     1  UNL1        0.0897
      9 C         142.7706  143.4775  164.9303 C.3     1  UNL1        0.0899
     10 N         141.6489  144.2548  164.3077 N.3     1  UNL1       -0.2665
     11 C         140.2507  144.1015  164.8286 C.3     1  UNL1        0.0899
     12 C         139.9742  143.1710  165.9722 C.3     1  UNL1        0.0897
     13 C         141.9255  145.1853  163.1641 C.3     1  UNL1        0.0992
     14 C         141.6188  144.7587  161.7591 C.ar    1  UNL1       -0.0061
     15 C         140.5380  145.4521  160.9838 C.ar    1  UNL1       -0.0029
     16 C         140.2314  145.0255  159.5787 C.ar    1  UNL1       -0.0003
     17 C         141.0056  143.9056  158.9491 C.ar    1  UNL1       -0.0000
     18 C         142.0864  143.2123  159.7244 C.ar    1  UNL1       -0.0003
     19 C         142.3930  143.6388  161.1294 C.ar    1  UNL1       -0.0029
     20 C         139.8022  140.9723  166.7512 C.3     1  UNL1        0.1142
     21 C         138.9837  138.7462  165.6910 C.2     1  UNL1        0.2304
     22 O         137.6135  138.9817  166.2543 O.2     1  UNL1       -0.2745
     23 N         140.0780  139.7415  165.9395 N.am    1  UNL1       -0.2425
     24 C         141.4482  139.5060  165.3762 C.ar    1  UNL1        0.1373
     25 C         142.4942  138.8251  166.2081 C.ar    1  UNL1        0.0347
     26 C         143.8643  138.5896  165.6448 C.ar    1  UNL1        0.0044
     27 C         144.1884  139.0350  164.2496 C.ar    1  UNL1        0.0232
     28 C         143.1423  139.7160  163.4178 C.ar    1  UNL1        0.1540
     29 N         141.7722  139.9515  163.9810 N.ar    1  UNL1       -0.2263
     30 C         143.4664  140.1615  162.0225 C.3     1  UNL1        0.4349
     31 F         143.7905  140.6070  160.6273 F       1  UNL1       -0.1644
     32 F         142.0154  140.0650  161.6548 F       1  UNL1       -0.1644
     33 F         144.9174  140.2580  162.3903 F       1  UNL1       -0.1644
     34 C         139.0277  137.5267  163.3973 C.3     1  UNL1        0.0101
     35 C         139.2594  137.5153  164.8792 C.3     1  UNL1        0.0857
@<TRIPOS>BOND
     1    34    35    1
     2    35    21    1
     3    21    22    2
     4    21    23   am
     5    23    20    1
     6    20     1    1
     7     1     7    1
     8     7     8    1
     9     8     9    1
    10     9    10    1
    11    10    13    1
    12    13    14    1
    13    14    15   ar
    14    15    16   ar
    15    16    17   ar
    16    17    18   ar
    17    18    19   ar
    18    10    11    1
    19    11    12    1
    20     1     2    1
    21     2     3    1
    22     3     4    1
    23     4     5    1
    24     5     6    1
    25    23    24    1
    26    24    25   ar
    27    25    26   ar
    28    26    27   ar
    29    27    28   ar
    30    28    30    1
    31    30    31    1
    32    30    32    1
    33    30    33    1
    34    28    29   ar
    35     6     1    1
    36    29    24   ar
    37    12     7    1
    38    19    14   ar
@<TRIPOS>MOLECULE
*****
 35 38 0 0 0
SMALL
GASTEIGER

@<TRIPOS>ATOM
      1 C         142.7791  140.7664  161.9124 C.3     1  UNL1        0.0658
      2 C         143.6251  139.5309  161.8243 C.3     1  UNL1        0.0280
      3 C         144.1423  139.0694  160.4940 C.3     1  UNL1        0.0590
      4 S         143.8135  139.8434  159.2519 S.3     1  UNL1       -0.1402
      5 C         142.9675  141.0789  159.3400 C.3     1  UNL1        0.0590
      6 C         142.4503  141.5405  160.6702 C.3     1  UNL1        0.0280
      7 N         142.8189  140.3742  163.3597 N.3     1  UNL1       -0.2711
      8 C         143.0418  141.4179  164.4137 C.3     1  UNL1        0.0897
      9 C         143.0816  141.0257  165.8609 C.3     1  UNL1        0.0899
     10 N         142.8985  139.5898  166.2542 N.3     1  UNL1       -0.2665
     11 C         142.6756  138.5461  165.2001 C.3     1  UNL1        0.0899
     12 C         142.6358  138.9383  163.7529 C.3     1  UNL1        0.0897
     13 C         142.9382  139.1976  167.7015 C.3     1  UNL1        0.0992
     14 C         141.9467  139.7808  168.6641 C.ar    1  UNL1       -0.0061
     15 C         140.5128  139.9456  168.2559 C.ar    1  UNL1       -0.0029
     16 C         139.5212  140.5289  169.2186 C.ar    1  UNL1       -0.0003
     17 C         139.9637  140.9473  170.5894 C.ar    1  UNL1       -0.0000
     18 C         141.3976  140.7825  170.9976 C.ar    1  UNL1       -0.0003
     19 C         142.3892  140.1992  170.0350 C.ar    1  UNL1       -0.0029
     20 C         141.9469  141.8658  162.5031 C.3     1  UNL1        0.1142
     21 C         139.5995  142.9572  162.2835 C.2     1  UNL1        0.2304
     22 O         140.2424  144.2873  162.0232 O.2     1  UNL1       -0.2745
     23 N         140.4519  141.7465  162.5234 N.am    1  UNL1       -0.2425
     24 C         139.8091  140.4164  162.7837 C.ar    1  UNL1        0.1373
     25 C         139.6145  139.4444  161.6579 C.ar    1  UNL1        0.0347
     26 C         138.9717  138.1143  161.9182 C.ar    1  UNL1        0.0044
     27 C         138.5235  137.7563  163.3042 C.ar    1  UNL1        0.0232
     28 C         138.7181  138.7283  164.4299 C.ar    1  UNL1        0.1540
     29 N         139.3609  140.0584  164.1697 N.ar    1  UNL1       -0.2263
     30 C         138.2699  138.3703  165.8159 C.3     1  UNL1        0.4349
     31 F         137.8217  138.0123  167.2019 F       1  UNL1       -0.1644
     32 F         138.5806  136.9283  165.5439 F       1  UNL1       -0.1644
     33 F         137.9592  139.8123  166.0879 F       1  UNL1       -0.1644
     34 C         137.3499  143.0794  163.5775 C.3     1  UNL1        0.0101
     35 C         138.1044  142.8380  162.3037 C.3     1  UNL1        0.0857
@<TRIPOS>BOND
     1    34    35    1
     2    35    21    1
     3    21    22    2
     4    21    23   am
     5    23    20    1
     6    20     1    1
     7     1     7    1
     8     7     8    1
     9     8     9    1
    10     9    10    1
    11    10    13    1
    12    13    14    1
    13    14    15   ar
    14    15    16   ar
    15    16    17   ar
    16    17    18   ar
    17    18    19   ar
    18    10    11    1
    19    11    12    1
    20     1     2    1
    21     2     3    1
    22     3     4    1
    23     4     5    1
    24     5     6    1
    25    23    24    1
    26    24    25   ar
    27    25    26   ar
    28    26    27   ar
    29    27    28   ar
    30    28    30    1
    31    30    31    1
    32    30    32    1
    33    30    33    1
    34    28    29   ar
    35     6     1    1
    36    29    24   ar
    37    12     7    1
    38    19    14   ar
@<TRIPOS>MOLECULE
*****
 35 38 0 0 0
SMALL
GASTEIGER

@<TRIPOS>ATOM
      1 C         140.7432  141.4364  167.7654 C.3     1  UNL1        0.0658
      2 C         141.8946  142.2188  168.3241 C.3     1  UNL1        0.0280
      3 C         142.4219  141.9034  169.6925 C.3     1  UNL1        0.0590
      4 S         141.7978  140.8057  170.5021 S.3     1  UNL1       -0.1402
      5 C         140.6464  140.0233  169.9434 C.3     1  UNL1        0.0590
      6 C         140.1191  140.3386  168.5750 C.3     1  UNL1        0.0280
      7 N         140.9981  142.3757  166.6239 N.3     1  UNL1       -0.2711
      8 C         142.3937  142.5695  166.1095 C.3     1  UNL1        0.0897
      9 C         142.6486  143.5087  164.9681 C.3     1  UNL1        0.0899
     10 N         141.5079  144.2542  164.3412 N.3     1  UNL1       -0.2665
     11 C         140.1123  144.0605  164.8557 C.3     1  UNL1        0.0899
     12 C         139.8574  143.1212  165.9970 C.3     1  UNL1        0.0897
     13 C         141.7628  145.1936  163.1998 C.3     1  UNL1        0.0992
     14 C         141.5700  144.7271  161.7873 C.ar    1  UNL1       -0.0061
     15 C         142.3915  143.5911  161.2538 C.ar    1  UNL1       -0.0029
     16 C         142.1987  143.1247  159.8412 C.ar    1  UNL1       -0.0003
     17 C         141.1844  143.7943  158.9622 C.ar    1  UNL1       -0.0000
     18 C         140.3630  144.9304  159.4956 C.ar    1  UNL1       -0.0003
     19 C         140.5558  145.3968  160.9081 C.ar    1  UNL1       -0.0029
     20 C         139.6803  140.9802  166.8102 C.3     1  UNL1        0.1142
     21 C         138.8548  138.7292  165.8095 C.2     1  UNL1        0.2304
     22 O         137.5560  138.8787  166.5448 O.2     1  UNL1       -0.2745
     23 N         139.9170  139.7800  165.9422 N.am    1  UNL1       -0.2425
     24 C         141.2159  139.6306  165.2069 C.ar    1  UNL1        0.1373
     25 C         141.3355  140.1105  163.7908 C.ar    1  UNL1        0.0347
     26 C         142.6344  139.9610  163.0555 C.ar    1  UNL1        0.0044
     27 C         143.8135  139.3317  163.7363 C.ar    1  UNL1        0.0232
     28 C         143.6938  138.8518  165.1524 C.ar    1  UNL1        0.1540
     29 N         142.3950  139.0012  165.8877 N.ar    1  UNL1       -0.2263
     30 C         144.8730  138.2223  165.8332 C.3     1  UNL1        0.4349
     31 F         146.0522  137.5930  166.5140 F       1  UNL1       -0.1644
     32 F         143.9469  137.4769  166.7479 F       1  UNL1       -0.1644
     33 F         145.7990  138.9678  164.9185 F       1  UNL1       -0.1644
     34 C         138.7474  137.5790  163.4824 C.3     1  UNL1        0.0101
     35 C         139.0914  137.5290  164.9415 C.3     1  UNL1        0.0857
@<TRIPOS>BOND
     1    34    35    1
     2    35    21    1
     3    21    22    2
     4    21    23   am
     5    23    20    1
     6    20     1    1
     7     1     7    1
     8     7     8    1
     9     8     9    1
    10     9    10    1
    11    10    13    1
    12    13    14    1
    13    14    15   ar
    14    15    16   ar
    15    16    17   ar
    16    17    18   ar
    17    18    19   ar
    18    10    11    1
    19    11    12    1
    20     1     2    1
    21     2     3    1
    22     3     4    1
    23     4     5    1
    24     5     6    1
    25    23    24    1
    26    24    25   ar
    27    25    26   ar
    28    26    27   ar
    29    27    28   ar
    30    28    30    1
    31    30    31    1
    32    30    32    1
    33    30    33    1
    34    28    29   ar
    35     6     1    1
    36    29    24   ar
    37    12     7    1
    38    19    14   ar
@<TRIPOS>MOLECULE
*****
 35 38 0 0 0
SMALL
GASTEIGER

@<TRIPOS>ATOM
      1 C         140.6701  139.4502  162.4384 C.3     1  UNL1        0.0658
      2 C         141.7450  138.5874  163.0299 C.3     1  UNL1        0.0280
      3 C         142.7546  137.9292  162.1369 C.3     1  UNL1        0.0590
      4 S         142.6892  138.1339  160.6523 S.3     1  UNL1       -0.1402
      5 C         141.6142  138.9967  160.0608 C.3     1  UNL1        0.0590
      6 C         140.6046  139.6549  160.9538 C.3     1  UNL1        0.0280
      7 N         140.3199  139.5583  163.8930 N.3     1  UNL1       -0.2711
      8 C         141.3883  139.8616  164.9011 C.3     1  UNL1        0.0897
      9 C         141.0381  139.9696  166.3556 C.3     1  UNL1        0.0899
     10 N         139.6194  139.7743  166.8020 N.3     1  UNL1       -0.2665
     11 C         138.5510  139.4710  165.7939 C.3     1  UNL1        0.0899
     12 C         138.9012  139.3630  164.3394 C.3     1  UNL1        0.0897
     13 C         139.2692  139.8823  168.2566 C.3     1  UNL1        0.0992
     14 C         140.1624  140.6464  169.1883 C.ar    1  UNL1       -0.0061
     15 C         141.1062  139.9117  170.0935 C.ar    1  UNL1       -0.0029
     16 C         141.9995  140.6759  171.0253 C.ar    1  UNL1       -0.0003
     17 C         141.9489  142.1748  171.0518 C.ar    1  UNL1       -0.0000
     18 C         141.0052  142.9095  170.1466 C.ar    1  UNL1       -0.0003
     19 C         140.1119  142.1454  169.2149 C.ar    1  UNL1       -0.0029
     20 C         139.4734  140.3506  162.3521 C.3     1  UNL1        0.1142
     21 C         138.4446  142.6945  162.7963 C.2     1  UNL1        0.2304
     22 O         137.0865  142.0724  162.9333 O.2     1  UNL1       -0.2745
     23 N         139.6380  141.8336  162.5057 N.am    1  UNL1       -0.2425
     24 C         140.9961  142.4557  162.3687 C.ar    1  UNL1        0.1373
     25 C         141.5246  142.8112  161.0107 C.ar    1  UNL1        0.0347
     26 C         142.8826  143.4333  160.8737 C.ar    1  UNL1        0.0044
     27 C         143.7121  143.6998  162.0947 C.ar    1  UNL1        0.0232
     28 C         143.1835  143.3442  163.4527 C.ar    1  UNL1        0.1540
     29 N         141.8255  142.7221  163.5898 N.ar    1  UNL1       -0.2263
     30 C         144.0131  143.6107  164.6738 C.3     1  UNL1        0.4349
     31 F         144.8425  143.8772  165.8949 F       1  UNL1       -0.1644
     32 F         144.0974  145.0609  164.2999 F       1  UNL1       -0.1644
     33 F         143.9286  142.1605  165.0477 F       1  UNL1       -0.1644
     34 C         138.8852  144.7655  164.3020 C.3     1  UNL1        0.0101
     35 C         138.6091  144.1775  162.9499 C.3     1  UNL1        0.0857
@<TRIPOS>BOND
     1    34    35    1
     2    35    21    1
     3    21    22    2
     4    21    23   am
     5    23    20    1
     6    20     1    1
     7     1     7    1
     8     7     8    1
     9     8     9    1
    10     9    10    1
    11    10    13    1
    12    13    14    1
    13    14    15   ar
    14    15    16   ar
    15    16    17   ar
    16    17    18   ar
    17    18    19   ar
    18    10    11    1
    19    11    12    1
    20     1     2    1
    21     2     3    1
    22     3     4    1
    23     4     5    1
    24     5     6    1
    25    23    24    1
    26    24    25   ar
    27    25    26   ar
    28    26    27   ar
    29    27    28   ar
    30    28    30    1
    31    30    31    1
    32    30    32    1
    33    30    33    1
    34    28    29   ar
    35     6     1    1
    36    29    24   ar
    37    12     7    1
    38    19    14   ar
@<TRIPOS>MOLECULE
*****
 35 38 0 0 0
SMALL
GASTEIGER

@<TRIPOS>ATOM
      1 C         141.4391  139.8235  162.1435 C.3     1  UNL1        0.0658
      2 C         140.1385  139.1057  161.9359 C.3     1  UNL1        0.0280
      3 C         139.7527  138.6340  160.5653 C.3     1  UNL1        0.0590
      4 S         140.6675  138.8800  159.4023 S.3     1  UNL1       -0.1402
      5 C         141.9681  139.5978  159.6098 C.3     1  UNL1        0.0590
      6 C         142.3540  140.0695  160.9804 C.3     1  UNL1        0.0280
      7 N         140.9125  139.8272  163.5481 N.3     1  UNL1       -0.2711
      8 C         139.4798  140.1850  163.8109 C.3     1  UNL1        0.0897
      9 C         138.9533  140.1887  165.2154 C.3     1  UNL1        0.0899
     10 N         139.8595  139.8345  166.3571 N.3     1  UNL1       -0.2665
     11 C         141.2922  139.4767  166.0942 C.3     1  UNL1        0.0899
     12 C         141.8187  139.4730  164.6897 C.3     1  UNL1        0.0897
     13 C         139.3329  139.8382  167.7617 C.3     1  UNL1        0.0992
     14 C         139.9942  140.6849  168.8084 C.ar    1  UNL1       -0.0061
     15 C         140.3789  140.0828  170.1272 C.ar    1  UNL1       -0.0029
     16 C         141.0403  140.9296  171.1740 C.ar    1  UNL1       -0.0003
     17 C         141.3169  142.3785  170.9018 C.ar    1  UNL1       -0.0000
     18 C         140.9323  142.9806  169.5829 C.ar    1  UNL1       -0.0003
     19 C         140.2709  142.1339  168.5362 C.ar    1  UNL1       -0.0029
     20 C         142.5569  140.5425  162.8389 C.3     1  UNL1        0.1142
     21 C         144.0579  142.6609  162.7432 C.2     1  UNL1        0.2304
     22 O         145.2754  141.8072  162.9410 O.2     1  UNL1       -0.2745
     23 N         142.6987  142.0285  162.6921 N.am    1  UNL1       -0.2425
     24 C         141.4813  142.8823  162.4943 C.ar    1  UNL1        0.1373
     25 C         141.0572  143.2744  161.1100 C.ar    1  UNL1        0.0347
     26 C         139.8398  144.1281  160.9122 C.ar    1  UNL1        0.0044
     27 C         139.0465  144.5896  162.0987 C.ar    1  UNL1        0.0232
     28 C         139.4707  144.1975  163.4829 C.ar    1  UNL1        0.1540
     29 N         140.6881  143.3438  163.6808 N.ar    1  UNL1       -0.2263
     30 C         138.6774  144.6590  164.6695 C.3     1  UNL1        0.4349
     31 F         137.8842  145.1205  165.8560 F       1  UNL1       -0.1644
     32 F         137.4044  144.3807  163.9266 F       1  UNL1       -0.1644
     33 F         139.9505  144.9372  165.4124 F       1  UNL1       -0.1644
     34 C         143.8768  145.0489  163.7507 C.3     1  UNL1        0.0101
     35 C         144.1998  144.1470  162.5965 C.3     1  UNL1        0.0857
@<TRIPOS>BOND
     1    34    35    1
     2    35    21    1
     3    21    22    2
     4    21    23   am
     5    23    20    1
     6    20     1    1
     7     1     7    1
     8     7     8    1
     9     8     9    1
    10     9    10    1
    11    10    13    1
    12    13    14    1
    13    14    15   ar
    14    15    16   ar
    15    16    17   ar
    16    17    18   ar
    17    18    19   ar
    18    10    11    1
    19    11    12    1
    20     1     2    1
    21     2     3    1
    22     3     4    1
    23     4     5    1
    24     5     6    1
    25    23    24    1
    26    24    25   ar
    27    25    26   ar
    28    26    27   ar
    29    27    28   ar
    30    28    30    1
    31    30    31    1
    32    30    32    1
    33    30    33    1
    34    28    29   ar
    35     6     1    1
    36    29    24   ar
    37    12     7    1
    38    19    14   ar
@<TRIPOS>MOLECULE
*****
 35 38 0 0 0
SMALL
GASTEIGER

@<TRIPOS>ATOM
      1 C         139.8413  142.3561  162.3948 C.3     1  UNL1        0.0658
      2 C         139.9785  143.5809  163.2497 C.3     1  UNL1        0.0280
      3 C         140.1947  144.9209  162.6111 C.3     1  UNL1        0.0590
      4 S         140.2738  145.0359  161.1176 S.3     1  UNL1       -0.1402
      5 C         140.1366  143.8111  160.2627 C.3     1  UNL1        0.0590
      6 C         139.9203  142.4712  160.9012 C.3     1  UNL1        0.0280
      7 N         139.6972  141.7415  163.7555 N.3     1  UNL1       -0.2711
      8 C         140.6054  142.1672  164.8708 C.3     1  UNL1        0.0897
      9 C         140.4613  141.5526  166.2314 C.3     1  UNL1        0.0899
     10 N         139.4090  140.5122  166.4768 N.3     1  UNL1       -0.2665
     11 C         138.5008  140.0864  165.3615 C.3     1  UNL1        0.0899
     12 C         138.6449  140.7010  164.0009 C.3     1  UNL1        0.0897
     13 C         139.2649  139.8975  167.8375 C.3     1  UNL1        0.0992
     14 C         140.1970  140.2962  168.9431 C.ar    1  UNL1       -0.0061
     15 C         141.5475  139.6529  169.0540 C.ar    1  UNL1       -0.0029
     16 C         142.4796  140.0516  170.1596 C.ar    1  UNL1       -0.0003
     17 C         142.0611  141.0935  171.1542 C.ar    1  UNL1       -0.0000
     18 C         140.7106  141.7368  171.0433 C.ar    1  UNL1       -0.0003
     19 C         139.7785  141.3381  169.9377 C.ar    1  UNL1       -0.0029
     20 C         139.6540  140.9178  162.0124 C.3     1  UNL1        0.1142
     21 C         140.7338  139.2134  160.3756 C.2     1  UNL1        0.2304
     22 O         139.4546  139.1530  159.5946 O.2     1  UNL1       -0.2745
     23 N         140.8335  140.0958  161.5845 N.am    1  UNL1       -0.2425
     24 C         142.1127  140.1562  162.3656 C.ar    1  UNL1        0.1373
     25 C         143.2488  141.0064  161.8794 C.ar    1  UNL1        0.0347
     26 C         144.5280  141.0668  162.6604 C.ar    1  UNL1        0.0044
     27 C         144.6711  140.2769  163.9275 C.ar    1  UNL1        0.0232
     28 C         143.5350  139.4267  164.4136 C.ar    1  UNL1        0.1540
     29 N         142.2558  139.3663  163.6327 N.ar    1  UNL1       -0.2263
     30 C         143.6781  138.6368  165.6808 C.3     1  UNL1        0.4349
     31 F         143.8211  137.8469  166.9480 F       1  UNL1       -0.1644
     32 F         145.1680  138.6292  165.5078 F       1  UNL1       -0.1644
     33 F         142.1881  138.6444  165.8538 F       1  UNL1       -0.1644
     34 C         142.6636  138.7493  158.6992 C.3     1  UNL1        0.0101
     35 C         141.9133  138.3914  159.9477 C.3     1  UNL1        0.0857
@<TRIPOS>BOND
     1    34    35    1
     2    35    21    1
     3    21    22    2
     4    21    23   am
     5    23    20    1
     6    20     1    1
     7     1     7    1
     8     7     8    1
     9     8     9    1
    10     9    10    1
    11    10    13    1
    12    13    14    1
    13    14    15   ar
    14    15    16   ar
    15    16    17   ar
    16    17    18   ar
    17    18    19   ar
    18    10    11    1
    19    11    12    1
    20     1     2    1
    21     2     3    1
    22     3     4    1
    23     4     5    1
    24     5     6    1
    25    23    24    1
    26    24    25   ar
    27    25    26   ar
    28    26    27   ar
    29    27    28   ar
    30    28    30    1
    31    30    31    1
    32    30    32    1
    33    30    33    1
    34    28    29   ar
    35     6     1    1
    36    29    24   ar
    37    12     7    1
    38    19    14   ar
