@<TRIPOS>MOLECULE
*****
 34 38 0 0 0
SMALL
GASTEIGER

@<TRIPOS>ATOM
      1 N         142.6863  142.0279  160.9403 N.am    1  UNL1       -0.2991
      2 C         142.4930  143.5086  160.7981 C.2     1  UNL1        0.2224
      3 O         143.1013  144.4441  161.8006 O.2     1  UNL1       -0.2751
      4 H         142.2870  141.4139  160.2824 H       1  UNL1        0.1498
      5 C         141.6914  144.0538  159.6535 C.3     1  UNL1        0.0799
      6 C         140.5994  143.8907  158.6382 C.3     1  UNL1        0.0306
      7 C         139.5911  144.0166  157.5348 C.3     1  UNL1        0.0942
      8 N         139.7638  145.3650  156.9008 N.am    1  UNL1       -0.2761
      9 C         138.9622  145.9102  155.7562 C.2     1  UNL1        0.2490
     10 O         137.8722  145.0825  155.1423 O.2     1  UNL1       -0.2699
     11 C         140.8787  146.0725  157.6124 C.3     1  UNL1        0.0942
     12 C         141.3952  145.1613  158.6862 C.3     1  UNL1        0.0306
     13 C         139.2506  147.2832  155.2254 C.ar    1  UNL1        0.0536
     14 C         140.1491  147.4544  154.0366 C.ar    1  UNL1        0.0045
     15 C         140.4374  148.8273  153.5058 C.ar    1  UNL1        0.0001
     16 C         139.8273  150.0293  154.1638 C.ar    1  UNL1        0.0000
     17 C         138.9287  149.8581  155.3527 C.ar    1  UNL1        0.0001
     18 C         138.6403  148.4851  155.8835 C.ar    1  UNL1        0.0045
     19 C         143.4879  141.4827  162.0850 C.3     1  UNL1        0.1376
     20 C         141.5326  140.2254  165.1932 C.ar    1  UNL1        0.0617
     21 C         141.9782  140.0599  163.7706 C.ar    1  UNL1        0.0329
     22 C         142.8315  141.2401  163.4118 C.ar    1  UNL1        0.0999
     23 N         142.9133  142.1351  164.6127 N.ar    1  UNL1       -0.1681
     24 N         142.1105  141.5079  165.7138 N.ar    1  UNL1       -0.2340
     25 C         141.9192  142.0655  167.0930 C.ar    1  UNL1        0.0824
     26 C         140.5997  142.6615  167.4848 C.ar    1  UNL1        0.0191
     27 C         140.4085  143.2191  168.8642 C.ar    1  UNL1        0.0015
     28 C         141.5369  143.1807  169.8518 C.ar    1  UNL1        0.0001
     29 C         142.8565  142.5847  169.4600 C.ar    1  UNL1        0.0015
     30 C         143.0477  142.0272  168.0806 C.ar    1  UNL1        0.0191
     31 C         140.6618  139.2752  165.9607 C.3     1  UNL1        0.0459
     32 C         138.1780  139.9038  165.5299 C.3     1  UNL1        0.0004
     33 C         139.3025  138.9152  165.4387 C.3     1  UNL1        0.0059
     34 C         139.0675  137.5666  164.8253 C.3     1  UNL1        0.0004
@<TRIPOS>BOND
     1    32    33    1
     2    33    34    1
     3    33    31    1
     4    31    20    1
     5    20    21   ar
     6    21    22   ar
     7    22    19    1
     8    19     1    1
     9     1     2   am
    10     2     3    2
    11     2     5    1
    12     5     6    1
    13     6     7    1
    14     7     8    1
    15     8     9   am
    16     9    10    2
    17     9    13    1
    18    13    14   ar
    19    14    15   ar
    20    15    16   ar
    21    16    17   ar
    22    17    18   ar
    23     8    11    1
    24    11    12    1
    25    22    23   ar
    26    23    24   ar
    27    24    25    1
    28    25    26   ar
    29    26    27   ar
    30    27    28   ar
    31    28    29   ar
    32    29    30   ar
    33    24    20   ar
    34    30    25   ar
    35    12     5    1
    36    12     6    1
    37    18    13   ar
    38     1     4    1
@<TRIPOS>MOLECULE
*****
 34 38 0 0 0
SMALL
GASTEIGER

@<TRIPOS>ATOM
      1 N         142.9401  144.1634  161.6690 N.am    1  UNL1       -0.2991
      2 C         142.6576  143.4273  160.3929 C.2     1  UNL1        0.2224
      3 O         143.2268  142.0565  160.1760 O.2     1  UNL1       -0.2751
      4 H         142.5665  145.0631  161.8114 H       1  UNL1        0.1498
      5 C         141.8058  144.0619  159.3338 C.3     1  UNL1        0.0799
      6 C         140.6930  143.9676  158.3324 C.3     1  UNL1        0.0306
      7 C         139.6511  144.1731  157.2731 C.3     1  UNL1        0.0942
      8 N         139.7575  145.5880  156.7867 N.am    1  UNL1       -0.2761
      9 C         138.9057  146.2226  155.7275 C.2     1  UNL1        0.2490
     10 O         137.8300  145.4246  155.0522 O.2     1  UNL1       -0.2699
     11 C         140.8652  146.2570  157.5453 C.3     1  UNL1        0.0942
     12 C         141.4434  145.2555  158.5006 C.3     1  UNL1        0.0306
     13 C         139.1297  147.6553  155.3436 C.ar    1  UNL1        0.0536
     14 C         140.0074  147.9900  154.1743 C.ar    1  UNL1        0.0045
     15 C         140.2314  149.4227  153.7904 C.ar    1  UNL1        0.0001
     16 C         139.5775  150.5206  154.5759 C.ar    1  UNL1        0.0000
     17 C         138.6997  150.1858  155.7453 C.ar    1  UNL1        0.0001
     18 C         138.4758  148.7532  156.1292 C.ar    1  UNL1        0.0045
     19 C         143.7918  143.5287  162.7281 C.3     1  UNL1        0.1376
     20 C         142.6863  141.5354  165.8697 C.ar    1  UNL1        0.0617
     21 C         143.5834  142.5340  165.2003 C.ar    1  UNL1        0.0329
     22 C         143.1647  142.6437  163.7642 C.ar    1  UNL1        0.0999
     23 N         142.0088  141.7129  163.5459 N.ar    1  UNL1       -0.1681
     24 N         141.7132  141.0280  164.8473 N.ar    1  UNL1       -0.2340
     25 C         140.6339  140.0137  165.0845 C.ar    1  UNL1        0.0824
     26 C         140.7439  138.6458  164.4790 C.ar    1  UNL1        0.0191
     27 C         139.6645  137.6316  164.7162 C.ar    1  UNL1        0.0015
     28 C         138.4750  137.9852  165.5589 C.ar    1  UNL1        0.0001
     29 C         138.3650  139.3532  166.1644 C.ar    1  UNL1        0.0015
     30 C         139.4444  140.3674  165.9272 C.ar    1  UNL1        0.0191
     31 C         142.7510  141.1177  167.3089 C.3     1  UNL1        0.0459
     32 C         143.4227  142.5072  169.3990 C.3     1  UNL1        0.0004
     33 C         142.3925  142.0937  168.3901 C.3     1  UNL1        0.0059
     34 C         141.0039  142.6563  168.4623 C.3     1  UNL1        0.0004
@<TRIPOS>BOND
     1    32    33    1
     2    33    34    1
     3    33    31    1
     4    31    20    1
     5    20    21   ar
     6    21    22   ar
     7    22    19    1
     8    19     1    1
     9     1     2   am
    10     2     3    2
    11     2     5    1
    12     5     6    1
    13     6     7    1
    14     7     8    1
    15     8     9   am
    16     9    10    2
    17     9    13    1
    18    13    14   ar
    19    14    15   ar
    20    15    16   ar
    21    16    17   ar
    22    17    18   ar
    23     8    11    1
    24    11    12    1
    25    22    23   ar
    26    23    24   ar
    27    24    25    1
    28    25    26   ar
    29    26    27   ar
    30    27    28   ar
    31    28    29   ar
    32    29    30   ar
    33    24    20   ar
    34    30    25   ar
    35    12     5    1
    36    12     6    1
    37    18    13   ar
    38     1     4    1
@<TRIPOS>MOLECULE
*****
 34 38 0 0 0
SMALL
GASTEIGER

@<TRIPOS>ATOM
      1 N         143.0632  144.1599  161.3210 N.am    1  UNL1       -0.2991
      2 C         142.6056  143.3779  160.1255 C.2     1  UNL1        0.2224
      3 O         142.9958  141.9370  159.9776 O.2     1  UNL1       -0.2751
      4 H         142.8071  145.1055  161.4182 H       1  UNL1        0.1498
      5 C         141.7580  144.0367  159.0780 C.3     1  UNL1        0.0799
      6 C         140.5903  143.9962  158.1373 C.3     1  UNL1        0.0306
      7 C         139.5161  144.2451  157.1203 C.3     1  UNL1        0.0942
      8 N         139.7194  145.6211  156.5587 N.am    1  UNL1       -0.2761
      9 C         138.8717  146.2799  155.5112 C.2     1  UNL1        0.2490
     10 O         137.6969  145.5509  154.9294 O.2     1  UNL1       -0.2699
     11 C         140.9192  146.2226  157.2286 C.3     1  UNL1        0.0942
     12 C         141.4574  145.2184  158.2042 C.3     1  UNL1        0.0306
     13 C         139.1989  147.6677  155.0453 C.ar    1  UNL1        0.0536
     14 C         138.5953  148.8532  155.7383 C.ar    1  UNL1        0.0045
     15 C         138.9225  150.2410  155.2725 C.ar    1  UNL1        0.0001
     16 C         139.8531  150.4433  154.1136 C.ar    1  UNL1        0.0000
     17 C         140.4567  149.2577  153.4206 C.ar    1  UNL1        0.0001
     18 C         140.1296  147.8699  153.8865 C.ar    1  UNL1        0.0045
     19 C         143.9108  143.5009  162.3686 C.3     1  UNL1        0.1376
     20 C         142.0778  141.1639  164.8673 C.ar    1  UNL1        0.0617
     21 C         142.5772  141.4722  163.4869 C.ar    1  UNL1        0.0329
     22 C         143.2632  142.8055  163.5291 C.ar    1  UNL1        0.0999
     23 N         143.1877  143.3212  164.9357 N.ar    1  UNL1       -0.1681
     24 N         142.4551  142.3065  165.7627 N.ar    1  UNL1       -0.2340
     25 C         142.1529  142.4156  167.2278 C.ar    1  UNL1        0.0824
     26 C         143.2549  142.2648  168.2342 C.ar    1  UNL1        0.0191
     27 C         142.9527  142.3739  169.6994 C.ar    1  UNL1        0.0015
     28 C         141.5484  142.6338  170.1583 C.ar    1  UNL1        0.0001
     29 C         140.4464  142.7846  169.1519 C.ar    1  UNL1        0.0015
     30 C         140.7487  142.6755  167.6867 C.ar    1  UNL1        0.0191
     31 C         141.3320  139.9295  165.2799 C.3     1  UNL1        0.0459
     32 C         143.3063  138.4522  166.0983 C.3     1  UNL1        0.0004
     33 C         142.0355  138.6052  165.3162 C.3     1  UNL1        0.0059
     34 C         141.4681  137.4338  164.5705 C.3     1  UNL1        0.0004
@<TRIPOS>BOND
     1    32    33    1
     2    33    34    1
     3    33    31    1
     4    31    20    1
     5    20    21   ar
     6    21    22   ar
     7    22    19    1
     8    19     1    1
     9     1     2   am
    10     2     3    2
    11     2     5    1
    12     5     6    1
    13     6     7    1
    14     7     8    1
    15     8     9   am
    16     9    10    2
    17     9    13    1
    18    13    14   ar
    19    14    15   ar
    20    15    16   ar
    21    16    17   ar
    22    17    18   ar
    23     8    11    1
    24    11    12    1
    25    22    23   ar
    26    23    24   ar
    27    24    25    1
    28    25    26   ar
    29    26    27   ar
    30    27    28   ar
    31    28    29   ar
    32    29    30   ar
    33    24    20   ar
    34    30    25   ar
    35    12     5    1
    36    12     6    1
    37    18    13   ar
    38     1     4    1
@<TRIPOS>MOLECULE
*****
 34 38 0 0 0
SMALL
GASTEIGER

@<TRIPOS>ATOM
      1 N         142.7565  141.7237  159.5126 N.am    1  UNL1       -0.2991
      2 C         142.5088  143.1910  159.7021 C.2     1  UNL1        0.2224
      3 O         143.1069  143.9070  160.8767 O.2     1  UNL1       -0.2751
      4 H         142.3640  141.2538  158.7417 H       1  UNL1        0.1498
      5 C         141.6631  143.9422  158.7170 C.3     1  UNL1        0.0799
      6 C         140.4724  144.0018  157.8067 C.3     1  UNL1        0.0306
      7 C         139.3848  144.3510  156.8345 C.3     1  UNL1        0.0942
      8 N         139.6292  145.7487  156.3480 N.am    1  UNL1       -0.2761
      9 C         138.7835  146.4999  155.3629 C.2     1  UNL1        0.2490
     10 O         137.5668  145.8520  154.7713 O.2     1  UNL1       -0.2699
     11 C         140.8678  146.2633  157.0195 C.3     1  UNL1        0.0942
     12 C         141.3890  145.1837  157.9210 C.3     1  UNL1        0.0306
     13 C         139.1544  147.8990  154.9693 C.ar    1  UNL1        0.0536
     14 C         140.0764  148.1324  153.8095 C.ar    1  UNL1        0.0045
     15 C         140.4473  149.5316  153.4159 C.ar    1  UNL1        0.0001
     16 C         139.8962  150.6973  154.1823 C.ar    1  UNL1        0.0000
     17 C         138.9741  150.4638  155.3422 C.ar    1  UNL1        0.0001
     18 C         138.6032  149.0647  155.7358 C.ar    1  UNL1        0.0045
     19 C         143.6022  140.9726  160.4978 C.3     1  UNL1        0.1376
     20 C         142.9186  140.5613  164.2963 C.ar    1  UNL1        0.0617
     21 C         143.8037  140.9884  163.1632 C.ar    1  UNL1        0.0329
     22 C         143.0834  140.7023  161.8790 C.ar    1  UNL1        0.0999
     23 N         141.7530  140.0983  162.2185 N.ar    1  UNL1       -0.1681
     24 N         141.6512  140.0112  163.7126 N.ar    1  UNL1       -0.2340
     25 C         140.4864  139.4691  164.4868 C.ar    1  UNL1        0.0824
     26 C         139.5711  140.4055  165.2185 C.ar    1  UNL1        0.0191
     27 C         138.4063  139.8633  165.9926 C.ar    1  UNL1        0.0015
     28 C         138.1568  138.3848  166.0352 C.ar    1  UNL1        0.0001
     29 C         139.0721  137.4485  165.3034 C.ar    1  UNL1        0.0015
     30 C         140.2369  137.9906  164.5293 C.ar    1  UNL1        0.0191
     31 C         143.2439  140.6660  165.7569 C.3     1  UNL1        0.0459
     32 C         142.1420  139.6477  167.8780 C.3     1  UNL1        0.0004
     33 C         143.0088  139.4943  166.6635 C.3     1  UNL1        0.0059
     34 C         143.6407  138.1691  166.3555 C.3     1  UNL1        0.0004
@<TRIPOS>BOND
     1    32    33    1
     2    33    34    1
     3    33    31    1
     4    31    20    1
     5    20    21   ar
     6    21    22   ar
     7    22    19    1
     8    19     1    1
     9     1     2   am
    10     2     3    2
    11     2     5    1
    12     5     6    1
    13     6     7    1
    14     7     8    1
    15     8     9   am
    16     9    10    2
    17     9    13    1
    18    13    14   ar
    19    14    15   ar
    20    15    16   ar
    21    16    17   ar
    22    17    18   ar
    23     8    11    1
    24    11    12    1
    25    22    23   ar
    26    23    24   ar
    27    24    25    1
    28    25    26   ar
    29    26    27   ar
    30    27    28   ar
    31    28    29   ar
    32    29    30   ar
    33    24    20   ar
    34    30    25   ar
    35    12     5    1
    36    12     6    1
    37    18    13   ar
    38     1     4    1
@<TRIPOS>MOLECULE
*****
 34 38 0 0 0
SMALL
GASTEIGER

@<TRIPOS>ATOM
      1 N         142.6745  136.1279  157.2423 N.am    1  UNL1       -0.2991
      2 C         143.5486  135.4278  156.2445 C.2     1  UNL1        0.2224
      3 O         144.5159  136.2157  155.4115 O.2     1  UNL1       -0.2751
      4 H         142.0397  135.6109  157.7890 H       1  UNL1        0.1498
      5 C         143.4556  133.9398  156.0796 C.3     1  UNL1        0.0799
      6 C         144.1075  132.6230  155.7778 C.3     1  UNL1        0.0306
      7 C         144.4718  131.1904  155.5228 C.3     1  UNL1        0.0942
      8 N         143.2320  130.3614  155.6832 N.am    1  UNL1       -0.2761
      9 C         143.1391  128.8734  155.5183 C.2     1  UNL1        0.2490
     10 O         144.3611  128.0806  155.1605 O.2     1  UNL1       -0.2699
     11 C         142.1016  131.2815  156.0374 C.3     1  UNL1        0.0942
     12 C         142.6427  132.6793  156.0959 C.3     1  UNL1        0.0306
     13 C         141.8240  128.1781  155.7113 C.ar    1  UNL1        0.0536
     14 C         140.7445  128.3151  154.6789 C.ar    1  UNL1        0.0045
     15 C         139.4295  127.6199  154.8719 C.ar    1  UNL1        0.0001
     16 C         139.1939  126.7876  156.0973 C.ar    1  UNL1        0.0000
     17 C         140.2734  126.6505  157.1298 C.ar    1  UNL1        0.0001
     18 C         141.5885  127.3458  156.9368 C.ar    1  UNL1        0.0045
     19 C         142.7675  137.6160  157.4071 C.3     1  UNL1        0.1376
     20 C         141.8294  138.9790  160.9181 C.ar    1  UNL1        0.0617
     21 C         141.4604  138.2848  159.6407 C.ar    1  UNL1        0.0329
     22 C         142.6839  138.2257  158.7750 C.ar    1  UNL1        0.0999
     23 N         143.8092  138.8834  159.5174 N.ar    1  UNL1       -0.1681
     24 N         143.2810  139.3490  160.8420 N.ar    1  UNL1       -0.2340
     25 C         144.0666  140.0597  161.9039 C.ar    1  UNL1        0.0824
     26 C         144.5445  141.4623  161.6710 C.ar    1  UNL1        0.0191
     27 C         145.3301  142.1730  162.7329 C.ar    1  UNL1        0.0015
     28 C         145.6379  141.4811  164.0278 C.ar    1  UNL1        0.0001
     29 C         145.1600  140.0785  164.2607 C.ar    1  UNL1        0.0015
     30 C         144.3744  139.3678  163.1987 C.ar    1  UNL1        0.0191
     31 C         140.9085  139.2547  162.0696 C.3     1  UNL1        0.0459
     32 C         141.1226  137.2530  163.7120 C.3     1  UNL1        0.0004
     33 C         140.2819  138.1159  162.8183 C.3     1  UNL1        0.0059
     34 C         138.8146  137.8400  162.6734 C.3     1  UNL1        0.0004
@<TRIPOS>BOND
     1    32    33    1
     2    33    34    1
     3    33    31    1
     4    31    20    1
     5    20    21   ar
     6    21    22   ar
     7    22    19    1
     8    19     1    1
     9     1     2   am
    10     2     3    2
    11     2     5    1
    12     5     6    1
    13     6     7    1
    14     7     8    1
    15     8     9   am
    16     9    10    2
    17     9    13    1
    18    13    14   ar
    19    14    15   ar
    20    15    16   ar
    21    16    17   ar
    22    17    18   ar
    23     8    11    1
    24    11    12    1
    25    22    23   ar
    26    23    24   ar
    27    24    25    1
    28    25    26   ar
    29    26    27   ar
    30    27    28   ar
    31    28    29   ar
    32    29    30   ar
    33    24    20   ar
    34    30    25   ar
    35    12     5    1
    36    12     6    1
    37    18    13   ar
    38     1     4    1
@<TRIPOS>MOLECULE
*****
 34 38 0 0 0
SMALL
GASTEIGER

@<TRIPOS>ATOM
      1 N         141.4415  142.8036  161.2655 N.am    1  UNL1       -0.2991
      2 C         142.8611  143.1630  160.9408 C.2     1  UNL1        0.2224
      3 O         143.6086  144.1284  161.8123 O.2     1  UNL1       -0.2751
      4 H         140.9510  142.1700  160.6935 H       1  UNL1        0.1498
      5 C         143.5334  142.5570  159.7446 C.3     1  UNL1        0.0799
      6 C         143.7770  141.3781  158.8497 C.3     1  UNL1        0.0306
      7 C         144.2070  140.3975  157.7993 C.3     1  UNL1        0.0942
      8 N         145.1502  141.0998  156.8680 N.am    1  UNL1       -0.2761
      9 C         145.8225  140.4938  155.6718 C.2     1  UNL1        0.2490
     10 O         145.5720  139.0579  155.3180 O.2     1  UNL1       -0.2699
     11 C         145.3030  142.5144  157.3428 C.3     1  UNL1        0.0942
     12 C         144.4543  142.6864  158.5676 C.3     1  UNL1        0.0306
     13 C         146.7452  141.3239  154.8294 C.ar    1  UNL1        0.0536
     14 C         148.1790  141.4964  155.2345 C.ar    1  UNL1        0.0045
     15 C         149.1017  142.3265  154.3921 C.ar    1  UNL1        0.0001
     16 C         148.5906  142.9840  153.1446 C.ar    1  UNL1        0.0000
     17 C         147.1566  142.8115  152.7395 C.ar    1  UNL1        0.0001
     18 C         146.2339  141.9814  153.5819 C.ar    1  UNL1        0.0045
     19 C         140.7693  143.4096  162.4617 C.3     1  UNL1        0.1376
     20 C         140.7112  141.0372  165.5331 C.ar    1  UNL1        0.0617
     21 C         140.4766  141.2984  164.0748 C.ar    1  UNL1        0.0329
     22 C         140.8481  142.7241  163.7936 C.ar    1  UNL1        0.0999
     23 N         141.3123  143.3442  165.0782 N.ar    1  UNL1       -0.1681
     24 N         141.2276  142.3015  166.1533 N.ar    1  UNL1       -0.2340
     25 C         141.5949  142.4902  167.5953 C.ar    1  UNL1        0.0824
     26 C         142.9820  142.1653  168.0647 C.ar    1  UNL1        0.0191
     27 C         143.3493  142.3540  169.5067 C.ar    1  UNL1        0.0015
     28 C         142.3295  142.8677  170.4794 C.ar    1  UNL1        0.0001
     29 C         140.9424  143.1927  170.0101 C.ar    1  UNL1        0.0015
     30 C         140.5751  143.0039  168.5680 C.ar    1  UNL1        0.0191
     31 C         140.4714  139.7395  166.2462 C.3     1  UNL1        0.0459
     32 C         139.4140  137.8280  164.8396 C.3     1  UNL1        0.0004
     33 C         139.2854  138.8942  165.8868 C.3     1  UNL1        0.0059
     34 C         137.9708  139.1152  166.5747 C.3     1  UNL1        0.0004
@<TRIPOS>BOND
     1    32    33    1
     2    33    34    1
     3    33    31    1
     4    31    20    1
     5    20    21   ar
     6    21    22   ar
     7    22    19    1
     8    19     1    1
     9     1     2   am
    10     2     3    2
    11     2     5    1
    12     5     6    1
    13     6     7    1
    14     7     8    1
    15     8     9   am
    16     9    10    2
    17     9    13    1
    18    13    14   ar
    19    14    15   ar
    20    15    16   ar
    21    16    17   ar
    22    17    18   ar
    23     8    11    1
    24    11    12    1
    25    22    23   ar
    26    23    24   ar
    27    24    25    1
    28    25    26   ar
    29    26    27   ar
    30    27    28   ar
    31    28    29   ar
    32    29    30   ar
    33    24    20   ar
    34    30    25   ar
    35    12     5    1
    36    12     6    1
    37    18    13   ar
    38     1     4    1
@<TRIPOS>MOLECULE
*****
 34 38 0 0 0
SMALL
GASTEIGER

@<TRIPOS>ATOM
      1 N         143.5927  138.3350  159.3781 N.am    1  UNL1       -0.2991
      2 C         142.6211  138.2929  158.2361 C.2     1  UNL1        0.2224
      3 O         141.8057  139.5063  157.8999 O.2     1  UNL1       -0.2751
      4 H         144.1278  137.5387  159.5988 H       1  UNL1        0.1498
      5 C         142.4648  137.0374  157.4303 C.3     1  UNL1        0.0799
      6 C         141.7835  136.2744  156.3332 C.3     1  UNL1        0.0306
      7 C         141.2974  135.2807  155.3201 C.3     1  UNL1        0.0942
      8 N         142.0889  134.0182  155.4924 N.am    1  UNL1       -0.2761
      9 C         141.9326  132.7628  154.6865 C.2     1  UNL1        0.2490
     10 O         140.9089  132.6965  153.5922 O.2     1  UNL1       -0.2699
     11 C         143.0641  134.2316  156.6119 C.3     1  UNL1        0.0942
     12 C         142.8754  135.6260  157.1316 C.3     1  UNL1        0.0306
     13 C         142.8000  131.5735  154.9750 C.ar    1  UNL1        0.0536
     14 C         143.7550  131.0712  153.9331 C.ar    1  UNL1        0.0045
     15 C         144.6224  129.8820  154.2216 C.ar    1  UNL1        0.0001
     16 C         144.5349  129.1950  155.5521 C.ar    1  UNL1        0.0000
     17 C         143.5799  129.6973  156.5942 C.ar    1  UNL1        0.0001
     18 C         142.7125  130.8865  156.3057 C.ar    1  UNL1        0.0045
     19 C         143.7489  139.5906  160.1839 C.3     1  UNL1        0.1376
     20 C         143.0186  140.0192  163.9718 C.ar    1  UNL1        0.0617
     21 C         143.9486  140.1097  162.7984 C.ar    1  UNL1        0.0329
     22 C         143.2008  139.6598  161.5784 C.ar    1  UNL1        0.0999
     23 N         141.8086  139.2911  161.9979 N.ar    1  UNL1       -0.1681
     24 N         141.6960  139.5133  163.4771 N.ar    1  UNL1       -0.2340
     25 C         140.4752  139.2719  164.3145 C.ar    1  UNL1        0.0824
     26 C         140.0611  137.8698  164.6501 C.ar    1  UNL1        0.0191
     27 C         138.8402  137.6285  165.4875 C.ar    1  UNL1        0.0015
     28 C         138.0333  138.7892  165.9892 C.ar    1  UNL1        0.0001
     29 C         138.4474  140.1913  165.6536 C.ar    1  UNL1        0.0015
     30 C         139.6683  140.4326  164.8163 C.ar    1  UNL1        0.0191
     31 C         143.3526  140.3725  165.3908 C.3     1  UNL1        0.0459
     32 C         142.1421  139.7177  167.5945 C.3     1  UNL1        0.0004
     33 C         143.0997  139.3831  166.4895 C.3     1  UNL1        0.0059
     34 C         143.8046  138.0589  166.4833 C.3     1  UNL1        0.0004
@<TRIPOS>BOND
     1    32    33    1
     2    33    34    1
     3    33    31    1
     4    31    20    1
     5    20    21   ar
     6    21    22   ar
     7    22    19    1
     8    19     1    1
     9     1     2   am
    10     2     3    2
    11     2     5    1
    12     5     6    1
    13     6     7    1
    14     7     8    1
    15     8     9   am
    16     9    10    2
    17     9    13    1
    18    13    14   ar
    19    14    15   ar
    20    15    16   ar
    21    16    17   ar
    22    17    18   ar
    23     8    11    1
    24    11    12    1
    25    22    23   ar
    26    23    24   ar
    27    24    25    1
    28    25    26   ar
    29    26    27   ar
    30    27    28   ar
    31    28    29   ar
    32    29    30   ar
    33    24    20   ar
    34    30    25   ar
    35    12     5    1
    36    12     6    1
    37    18    13   ar
    38     1     4    1
@<TRIPOS>MOLECULE
*****
 34 38 0 0 0
SMALL
GASTEIGER

@<TRIPOS>ATOM
      1 N         143.0905  141.9406  159.8317 N.am    1  UNL1       -0.2991
      2 C         142.4227  143.2492  160.1346 C.2     1  UNL1        0.2224
      3 O         142.5694  143.8694  161.4925 O.2     1  UNL1       -0.2751
      4 H         142.9942  141.5335  158.9404 H       1  UNL1        0.1498
      5 C         141.6083  143.9375  159.0796 C.3     1  UNL1        0.0799
      6 C         140.4705  143.9243  158.1024 C.3     1  UNL1        0.0306
      7 C         139.4286  144.2024  157.0598 C.3     1  UNL1        0.0942
      8 N         139.6498  145.5929  156.5427 N.am    1  UNL1       -0.2761
      9 C         138.8354  146.2813  155.4878 C.2     1  UNL1        0.2490
     10 O         137.6789  145.5701  154.8500 O.2     1  UNL1       -0.2699
     11 C         140.8285  146.1743  157.2658 C.3     1  UNL1        0.0942
     12 C         141.3357  145.1431  158.2297 C.3     1  UNL1        0.0306
     13 C         139.1775  147.6809  155.0706 C.ar    1  UNL1        0.0536
     14 C         138.6079  148.8478  155.8215 C.ar    1  UNL1        0.0045
     15 C         138.9500  150.2474  155.4043 C.ar    1  UNL1        0.0001
     16 C         139.8616  150.4802  154.2361 C.ar    1  UNL1        0.0000
     17 C         140.4312  149.3132  153.4851 C.ar    1  UNL1        0.0001
     18 C         140.0892  147.9136  153.9023 C.ar    1  UNL1        0.0045
     19 C         143.9049  141.2523  160.8867 C.3     1  UNL1        0.1376
     20 C         141.9702  138.8265  163.2187 C.ar    1  UNL1        0.0617
     21 C         142.4976  139.2013  161.8654 C.ar    1  UNL1        0.0329
     22 C         143.2212  140.5087  161.9956 C.ar    1  UNL1        0.0999
     23 N         143.1410  140.9420  163.4294 N.ar    1  UNL1       -0.1681
     24 N         142.3678  139.9023  164.1853 N.ar    1  UNL1       -0.2340
     25 C         142.0485  139.9332  165.6505 C.ar    1  UNL1        0.0824
     26 C         142.9501  139.2412  166.6295 C.ar    1  UNL1        0.0191
     27 C         142.6307  139.2722  168.0947 C.ar    1  UNL1        0.0015
     28 C         141.4096  139.9950  168.5812 C.ar    1  UNL1        0.0001
     29 C         140.5080  140.6869  167.6022 C.ar    1  UNL1        0.0015
     30 C         140.8274  140.6560  166.1370 C.ar    1  UNL1        0.0191
     31 C         141.1834  137.5926  163.5476 C.3     1  UNL1        0.0459
     32 C         139.1167  137.5634  165.1219 C.3     1  UNL1        0.0004
     33 C         139.6989  137.6799  163.7443 C.3     1  UNL1        0.0059
     34 C         138.7965  137.8837  162.5635 C.3     1  UNL1        0.0004
@<TRIPOS>BOND
     1    32    33    1
     2    33    34    1
     3    33    31    1
     4    31    20    1
     5    20    21   ar
     6    21    22   ar
     7    22    19    1
     8    19     1    1
     9     1     2   am
    10     2     3    2
    11     2     5    1
    12     5     6    1
    13     6     7    1
    14     7     8    1
    15     8     9   am
    16     9    10    2
    17     9    13    1
    18    13    14   ar
    19    14    15   ar
    20    15    16   ar
    21    16    17   ar
    22    17    18   ar
    23     8    11    1
    24    11    12    1
    25    22    23   ar
    26    23    24   ar
    27    24    25    1
    28    25    26   ar
    29    26    27   ar
    30    27    28   ar
    31    28    29   ar
    32    29    30   ar
    33    24    20   ar
    34    30    25   ar
    35    12     5    1
    36    12     6    1
    37    18    13   ar
    38     1     4    1
@<TRIPOS>MOLECULE
*****
 34 38 0 0 0
SMALL
GASTEIGER

@<TRIPOS>ATOM
      1 N         141.6455  139.4111  158.5867 N.am    1  UNL1       -0.2991
      2 C         142.7657  138.7783  157.8155 C.2     1  UNL1        0.2224
      3 O         144.0589  139.5156  157.6301 O.2     1  UNL1       -0.2751
      4 H         140.7968  138.9272  158.7084 H       1  UNL1        0.1498
      5 C         142.5929  137.4083  157.2297 C.3     1  UNL1        0.0799
      6 C         141.8603  136.4676  156.3195 C.3     1  UNL1        0.0306
      7 C         141.3356  135.3166  155.5134 C.3     1  UNL1        0.0942
      8 N         142.1772  134.1136  155.8210 N.am    1  UNL1       -0.2761
      9 C         142.0043  132.7436  155.2352 C.2     1  UNL1        0.2490
     10 O         140.9083  132.4843  154.2445 O.2     1  UNL1       -0.2699
     11 C         143.2219  134.5211  156.8172 C.3     1  UNL1        0.0942
     12 C         143.0261  135.9760  157.1253 C.3     1  UNL1        0.0306
     13 C         142.9275  131.6328  155.6401 C.ar    1  UNL1        0.0536
     14 C         143.8791  131.0463  154.6400 C.ar    1  UNL1        0.0045
     15 C         144.8023  129.9355  155.0449 C.ar    1  UNL1        0.0001
     16 C         144.7738  129.4112  156.4501 C.ar    1  UNL1        0.0000
     17 C         143.8221  129.9978  157.4502 C.ar    1  UNL1        0.0001
     18 C         142.8989  131.1086  157.0453 C.ar    1  UNL1        0.0045
     19 C         141.8185  140.7811  159.1725 C.3     1  UNL1        0.1376
     20 C         143.7863  141.7428  162.3768 C.ar    1  UNL1        0.0617
     21 C         143.4841  141.9294  160.9195 C.ar    1  UNL1        0.0329
     22 C         142.4210  140.9429  160.5366 C.ar    1  UNL1        0.0999
     23 N         142.0661  140.1467  161.7573 N.ar    1  UNL1       -0.1681
     24 N         142.9100  140.6411  162.8947 N.ar    1  UNL1       -0.2340
     25 C         142.8823  140.1244  164.3025 C.ar    1  UNL1        0.0824
     26 C         141.9854  140.7658  165.3194 C.ar    1  UNL1        0.0191
     27 C         141.9578  140.2490  166.7273 C.ar    1  UNL1        0.0015
     28 C         142.8270  139.0908  167.1184 C.ar    1  UNL1        0.0001
     29 C         143.7239  138.4493  166.1015 C.ar    1  UNL1        0.0015
     30 C         143.7516  138.9661  164.6936 C.ar    1  UNL1        0.0191
     31 C         144.7889  142.5213  163.1761 C.3     1  UNL1        0.0459
     32 C         144.5035  143.4278  165.5942 C.3     1  UNL1        0.0004
     33 C         144.3278  143.5972  164.1141 C.3     1  UNL1        0.0059
     34 C         143.6911  144.8426  163.5721 C.3     1  UNL1        0.0004
@<TRIPOS>BOND
     1    32    33    1
     2    33    34    1
     3    33    31    1
     4    31    20    1
     5    20    21   ar
     6    21    22   ar
     7    22    19    1
     8    19     1    1
     9     1     2   am
    10     2     3    2
    11     2     5    1
    12     5     6    1
    13     6     7    1
    14     7     8    1
    15     8     9   am
    16     9    10    2
    17     9    13    1
    18    13    14   ar
    19    14    15   ar
    20    15    16   ar
    21    16    17   ar
    22    17    18   ar
    23     8    11    1
    24    11    12    1
    25    22    23   ar
    26    23    24   ar
    27    24    25    1
    28    25    26   ar
    29    26    27   ar
    30    27    28   ar
    31    28    29   ar
    32    29    30   ar
    33    24    20   ar
    34    30    25   ar
    35    12     5    1
    36    12     6    1
    37    18    13   ar
    38     1     4    1
