@<TRIPOS>MOLECULE
*****
 27 29 0 0 0
SMALL
GASTEIGER

@<TRIPOS>ATOM
      1 C         137.4168  138.3431  167.3527 C.3     1  UNL1        0.0521
      2 C         138.6924  139.1258  167.2506 C.ar    1  UNL1        0.0606
      3 C         139.3564  139.3070  165.9179 C.ar    1  UNL1        0.0290
      4 C         140.6320  140.0896  165.8157 C.ar    1  UNL1        0.0475
      5 C         141.2435  140.6911  167.0464 C.ar    1  UNL1        0.0309
      6 C         142.5190  141.4737  166.9442 C.ar    1  UNL1        0.0027
      7 C         143.1305  142.0751  168.1748 C.ar    1  UNL1        0.0003
      8 C         142.4664  141.8939  169.5075 C.ar    1  UNL1        0.0060
      9 C         141.1908  141.1113  169.6097 C.ar    1  UNL1        0.0708
     10 C         140.5794  140.5099  168.3791 C.ar    1  UNL1        0.0864
     11 N         139.3038  139.7272  168.4812 N.ar    1  UNL1       -0.2494
     12 C         140.5268  140.9301  170.9424 C.2     1  UNL1        0.2442
     13 N         139.9361  139.6016  171.3116 N.am    1  UNL1       -0.3253
     14 O         140.4533  142.0773  171.9059 O.2     1  UNL1       -0.2703
     15 H         139.9843  138.8486  170.6792 H       1  UNL1        0.1453
     16 H         139.5003  139.4827  172.1863 H       1  UNL1        0.1453
     17 N         141.2960  140.2708  164.4830 N.pl3   1  UNL1       -0.3290
     18 H         142.1343  139.7952  164.2820 H       1  UNL1        0.1471
     19 C         140.6830  141.1766  163.4566 C.3     1  UNL1        0.1137
     20 C         139.8066  142.3148  163.8884 C.ar    1  UNL1       -0.0105
     21 C         140.4228  143.5923  164.3768 C.ar    1  UNL1       -0.0245
     22 C         141.9152  143.7316  164.4333 C.3     1  UNL1        0.0307
     23 C         139.5464  144.7305  164.8086 C.ar    1  UNL1       -0.0045
     24 C         138.0539  144.5913  164.7520 C.ar    1  UNL1       -0.0007
     25 C         137.4379  143.3138  164.2636 C.ar    1  UNL1       -0.0045
     26 C         138.3142  142.1756  163.8318 C.ar    1  UNL1       -0.0245
     27 C         137.6981  140.8981  163.3434 C.3     1  UNL1        0.0307
@<TRIPOS>BOND
     1     1     2    1
     2     2     3   ar
     3     3     4   ar
     4     4    17    1
     5    17    19    1
     6    19    20    1
     7    20    21   ar
     8    21    22    1
     9    21    23   ar
    10    23    24   ar
    11    24    25   ar
    12    25    26   ar
    13    26    27    1
    14     4     5   ar
    15     5     6   ar
    16     6     7   ar
    17     7     8   ar
    18     8     9   ar
    19     9    12    1
    20    12    13   am
    21    12    14    2
    22     9    10   ar
    23    10    11   ar
    24    11     2   ar
    25    26    20   ar
    26    10     5   ar
    27    17    18    1
    28    13    15    1
    29    13    16    1
@<TRIPOS>MOLECULE
*****
 27 29 0 0 0
SMALL
GASTEIGER

@<TRIPOS>ATOM
      1 C         137.5089  138.3949  167.2312 C.3     1  UNL1        0.0521
      2 C         138.7793  139.1887  167.1527 C.ar    1  UNL1        0.0606
      3 C         139.4705  139.3694  165.8338 C.ar    1  UNL1        0.0290
      4 C         140.7408  140.1631  165.7552 C.ar    1  UNL1        0.0475
      5 C         141.3200  140.7762  166.9957 C.ar    1  UNL1        0.0309
      6 C         142.5904  141.5699  166.9171 C.ar    1  UNL1        0.0027
      7 C         143.1695  142.1830  168.1576 C.ar    1  UNL1        0.0003
      8 C         142.4784  142.0023  169.4765 C.ar    1  UNL1        0.0060
      9 C         141.2081  141.2086  169.5551 C.ar    1  UNL1        0.0708
     10 C         140.6289  140.5955  168.3147 C.ar    1  UNL1        0.0864
     11 N         139.3585  139.8017  168.3932 N.ar    1  UNL1       -0.2494
     12 C         140.5169  141.0279  170.8740 C.2     1  UNL1        0.2442
     13 N         139.9132  139.7014  171.2289 N.am    1  UNL1       -0.3253
     14 O         140.4295  142.1737  171.8381 O.2     1  UNL1       -0.2703
     15 H         139.9706  138.9494  170.5962 H       1  UNL1        0.1453
     16 H         139.4596  139.5828  172.0946 H       1  UNL1        0.1453
     17 N         141.4319  140.3438  164.4363 N.pl3   1  UNL1       -0.3290
     18 H         142.1330  139.7115  164.1572 H       1  UNL1        0.1471
     19 C         141.0549  141.4879  163.5425 C.3     1  UNL1        0.1137
     20 C         141.9440  142.6924  163.4506 C.ar    1  UNL1       -0.0105
     21 C         143.2455  142.6092  162.7094 C.ar    1  UNL1       -0.0245
     22 C         143.6578  141.3214  162.0601 C.3     1  UNL1        0.0307
     23 C         144.1346  143.8138  162.6175 C.ar    1  UNL1       -0.0045
     24 C         143.7223  145.1016  163.2668 C.ar    1  UNL1       -0.0007
     25 C         142.4208  145.1848  164.0079 C.ar    1  UNL1       -0.0045
     26 C         141.5317  143.9802  164.0998 C.ar    1  UNL1       -0.0245
     27 C         140.2302  144.0635  164.8410 C.3     1  UNL1        0.0307
@<TRIPOS>BOND
     1     1     2    1
     2     2     3   ar
     3     3     4   ar
     4     4    17    1
     5    17    19    1
     6    19    20    1
     7    20    21   ar
     8    21    22    1
     9    21    23   ar
    10    23    24   ar
    11    24    25   ar
    12    25    26   ar
    13    26    27    1
    14     4     5   ar
    15     5     6   ar
    16     6     7   ar
    17     7     8   ar
    18     8     9   ar
    19     9    12    1
    20    12    13   am
    21    12    14    2
    22     9    10   ar
    23    10    11   ar
    24    11     2   ar
    25    26    20   ar
    26    10     5   ar
    27    17    18    1
    28    13    15    1
    29    13    16    1
@<TRIPOS>MOLECULE
*****
 27 29 0 0 0
SMALL
GASTEIGER

@<TRIPOS>ATOM
      1 C         144.6026  143.6284  165.0907 C.3     1  UNL1        0.0521
      2 C         143.1234  143.3792  165.0814 C.ar    1  UNL1        0.0606
      3 C         142.5166  142.4297  166.0715 C.ar    1  UNL1        0.0290
      4 C         141.0376  142.1805  166.0623 C.ar    1  UNL1        0.0475
      5 C         140.1652  142.8807  165.0630 C.ar    1  UNL1        0.0309
      6 C         138.6861  142.6315  165.0538 C.ar    1  UNL1        0.0027
      7 C         137.8138  143.3318  164.0545 C.ar    1  UNL1        0.0003
      8 C         138.4205  144.2812  163.0644 C.ar    1  UNL1        0.0060
      9 C         139.8996  144.5305  163.0736 C.ar    1  UNL1        0.0708
     10 C         140.7719  143.8302  164.0729 C.ar    1  UNL1        0.0864
     11 N         142.2511  144.0795  164.0821 N.ar    1  UNL1       -0.2494
     12 C         140.5064  145.4800  162.0835 C.2     1  UNL1        0.2442
     13 N         141.8064  145.1394  161.4173 N.am    1  UNL1       -0.3253
     14 O         139.8131  146.7701  161.7595 O.2     1  UNL1       -0.2703
     15 H         142.2615  144.2926  161.6299 H       1  UNL1        0.1453
     16 H         142.2047  145.7626  160.7675 H       1  UNL1        0.1453
     17 N         140.4308  141.2310  167.0524 N.pl3   1  UNL1       -0.3290
     18 H         139.7925  141.5623  167.7247 H       1  UNL1        0.1471
     19 C         140.7965  139.7767  167.0181 C.3     1  UNL1        0.1137
     20 C         140.6025  138.9840  165.7596 C.ar    1  UNL1       -0.0105
     21 C         139.2183  138.6318  165.3010 C.ar    1  UNL1       -0.0245
     22 C         138.0284  139.0723  166.1009 C.3     1  UNL1        0.0307
     23 C         139.0243  137.8390  164.0424 C.ar    1  UNL1       -0.0045
     24 C         140.2143  137.3985  163.2425 C.ar    1  UNL1       -0.0007
     25 C         141.5983  137.7507  163.7012 C.ar    1  UNL1       -0.0045
     26 C         141.7924  138.5434  164.9597 C.ar    1  UNL1       -0.0245
     27 C         143.1765  138.8956  165.4183 C.3     1  UNL1        0.0307
@<TRIPOS>BOND
     1     1     2    1
     2     2     3   ar
     3     3     4   ar
     4     4    17    1
     5    17    19    1
     6    19    20    1
     7    20    21   ar
     8    21    22    1
     9    21    23   ar
    10    23    24   ar
    11    24    25   ar
    12    25    26   ar
    13    26    27    1
    14     4     5   ar
    15     5     6   ar
    16     6     7   ar
    17     7     8   ar
    18     8     9   ar
    19     9    12    1
    20    12    13   am
    21    12    14    2
    22     9    10   ar
    23    10    11   ar
    24    11     2   ar
    25    26    20   ar
    26    10     5   ar
    27    17    18    1
    28    13    15    1
    29    13    16    1
@<TRIPOS>MOLECULE
*****
 27 29 0 0 0
SMALL
GASTEIGER

@<TRIPOS>ATOM
      1 C         136.9843  138.0066  167.6683 C.3     1  UNL1        0.0521
      2 C         138.1038  138.9625  167.3800 C.ar    1  UNL1        0.0606
      3 C         138.4696  139.2828  165.9610 C.ar    1  UNL1        0.0290
      4 C         139.5890  140.2386  165.6725 C.ar    1  UNL1        0.0475
      5 C         140.3427  140.8742  166.8031 C.ar    1  UNL1        0.0309
      6 C         141.4621  141.8300  166.5147 C.ar    1  UNL1        0.0027
      7 C         142.2156  142.4656  167.6453 C.ar    1  UNL1        0.0003
      8 C         141.8498  142.1452  169.0643 C.ar    1  UNL1        0.0060
      9 C         140.7304  141.1894  169.3527 C.ar    1  UNL1        0.0708
     10 C         139.9768  140.5539  168.2221 C.ar    1  UNL1        0.0864
     11 N         138.8573  139.5980  168.5105 N.ar    1  UNL1       -0.2494
     12 C         140.3645  140.8690  170.7717 C.2     1  UNL1        0.2442
     13 N         139.9649  139.4727  171.1463 N.am    1  UNL1       -0.3253
     14 O         140.3983  141.9451  171.8161 O.2     1  UNL1       -0.2703
     15 H         139.9427  138.7664  170.4608 H       1  UNL1        0.1453
     16 H         139.7248  139.2624  172.0776 H       1  UNL1        0.1453
     17 N         139.9549  140.5590  164.2536 N.pl3   1  UNL1       -0.3290
     18 H         139.5518  141.3371  163.8049 H       1  UNL1        0.1471
     19 C         140.9349  139.6937  163.5181 C.3     1  UNL1        0.1137
     20 C         142.4027  139.9940  163.5910 C.ar    1  UNL1       -0.0105
     21 C         143.2714  139.2571  164.5669 C.ar    1  UNL1       -0.0245
     22 C         142.6723  138.2199  165.4699 C.3     1  UNL1        0.0307
     23 C         144.7392  139.5573  164.6399 C.ar    1  UNL1       -0.0045
     24 C         145.3384  140.5946  163.7369 C.ar    1  UNL1       -0.0007
     25 C         144.4697  141.3314  162.7611 C.ar    1  UNL1       -0.0045
     26 C         143.0019  141.0312  162.6881 C.ar    1  UNL1       -0.0245
     27 C         142.1331  141.7681  161.7122 C.3     1  UNL1        0.0307
@<TRIPOS>BOND
     1     1     2    1
     2     2     3   ar
     3     3     4   ar
     4     4    17    1
     5    17    19    1
     6    19    20    1
     7    20    21   ar
     8    21    22    1
     9    21    23   ar
    10    23    24   ar
    11    24    25   ar
    12    25    26   ar
    13    26    27    1
    14     4     5   ar
    15     5     6   ar
    16     6     7   ar
    17     7     8   ar
    18     8     9   ar
    19     9    12    1
    20    12    13   am
    21    12    14    2
    22     9    10   ar
    23    10    11   ar
    24    11     2   ar
    25    26    20   ar
    26    10     5   ar
    27    17    18    1
    28    13    15    1
    29    13    16    1
@<TRIPOS>MOLECULE
*****
 27 29 0 0 0
SMALL
GASTEIGER

@<TRIPOS>ATOM
      1 C         144.2643  143.8544  164.6413 C.3     1  UNL1        0.0521
      2 C         142.8308  143.4282  164.7574 C.ar    1  UNL1        0.0606
      3 C         142.4223  142.4524  165.8209 C.ar    1  UNL1        0.0290
      4 C         140.9889  142.0262  165.9370 C.ar    1  UNL1        0.0475
      5 C         139.9639  142.5756  164.9896 C.ar    1  UNL1        0.0309
      6 C         138.5304  142.1493  165.1058 C.ar    1  UNL1        0.0027
      7 C         137.5055  142.6988  164.1584 C.ar    1  UNL1        0.0003
      8 C         137.9140  143.6745  163.0948 C.ar    1  UNL1        0.0060
      9 C         139.3475  144.1008  162.9787 C.ar    1  UNL1        0.0708
     10 C         140.3724  143.5513  163.9261 C.ar    1  UNL1        0.0864
     11 N         141.8059  143.9776  163.8100 N.ar    1  UNL1       -0.2494
     12 C         139.7560  145.0765  161.9152 C.2     1  UNL1        0.2442
     13 N         140.3000  146.4205  162.2994 N.am    1  UNL1       -0.3253
     14 O         139.6204  144.7082  160.4674 O.2     1  UNL1       -0.2703
     15 H         140.3890  146.6622  163.2496 H       1  UNL1        0.1453
     16 H         140.5681  147.0609  161.6013 H       1  UNL1        0.1453
     17 N         140.5804  141.0504  167.0006 N.pl3   1  UNL1       -0.3290
     18 H         140.0665  141.3598  167.7813 H       1  UNL1        0.1471
     19 C         140.9548  139.6034  166.8747 C.3     1  UNL1        0.1137
     20 C         140.7022  138.8725  165.5894 C.ar    1  UNL1       -0.0105
     21 C         141.8449  138.5514  164.6722 C.ar    1  UNL1       -0.0245
     22 C         143.2401  138.9613  165.0402 C.3     1  UNL1        0.0307
     23 C         141.5924  137.8204  163.3869 C.ar    1  UNL1       -0.0045
     24 C         140.1971  137.4105  163.0189 C.ar    1  UNL1       -0.0007
     25 C         139.0545  137.7316  163.9361 C.ar    1  UNL1       -0.0045
     26 C         139.3071  138.4626  165.2213 C.ar    1  UNL1       -0.0245
     27 C         138.1644  138.7837  166.1386 C.3     1  UNL1        0.0307
@<TRIPOS>BOND
     1     1     2    1
     2     2     3   ar
     3     3     4   ar
     4     4    17    1
     5    17    19    1
     6    19    20    1
     7    20    21   ar
     8    21    22    1
     9    21    23   ar
    10    23    24   ar
    11    24    25   ar
    12    25    26   ar
    13    26    27    1
    14     4     5   ar
    15     5     6   ar
    16     6     7   ar
    17     7     8   ar
    18     8     9   ar
    19     9    12    1
    20    12    13   am
    21    12    14    2
    22     9    10   ar
    23    10    11   ar
    24    11     2   ar
    25    26    20   ar
    26    10     5   ar
    27    17    18    1
    28    13    15    1
    29    13    16    1
@<TRIPOS>MOLECULE
*****
 27 29 0 0 0
SMALL
GASTEIGER

@<TRIPOS>ATOM
      1 C         145.0975  141.9700  162.2952 C.3     1  UNL1        0.0521
      2 C         143.9318  142.2947  163.1818 C.ar    1  UNL1        0.0606
      3 C         143.9207  141.8276  164.6072 C.ar    1  UNL1        0.0290
      4 C         142.7552  142.1523  165.4937 C.ar    1  UNL1        0.0475
      5 C         141.6007  142.9441  164.9550 C.ar    1  UNL1        0.0309
      6 C         140.4351  143.2688  165.8415 C.ar    1  UNL1        0.0027
      7 C         139.2807  144.0606  165.3028 C.ar    1  UNL1        0.0003
      8 C         139.2919  144.5278  163.8774 C.ar    1  UNL1        0.0060
      9 C         140.4574  144.2031  162.9908 C.ar    1  UNL1        0.0708
     10 C         141.6118  143.4113  163.5296 C.ar    1  UNL1        0.0864
     11 N         142.7774  143.0866  162.6430 N.ar    1  UNL1       -0.2494
     12 C         140.4686  144.6702  161.5655 C.2     1  UNL1        0.2442
     13 N         141.6502  145.4251  161.0328 N.am    1  UNL1       -0.3253
     14 O         139.2980  144.3825  160.6727 O.2     1  UNL1       -0.2703
     15 H         142.4185  145.6140  161.6187 H       1  UNL1        0.1453
     16 H         141.6575  145.7317  160.0973 H       1  UNL1        0.1453
     17 N         142.7440  141.6851  166.9191 N.pl3   1  UNL1       -0.3290
     18 H         142.9458  142.3177  167.6460 H       1  UNL1        0.1471
     19 C         142.4255  140.2543  167.2369 C.3     1  UNL1        0.1137
     20 C         141.1716  139.6284  166.7023 C.ar    1  UNL1       -0.0105
     21 C         141.2337  138.7333  165.5002 C.ar    1  UNL1       -0.0245
     22 C         142.5498  138.4641  164.8328 C.3     1  UNL1        0.0307
     23 C         139.9798  138.1074  164.9655 C.ar    1  UNL1       -0.0045
     24 C         138.6636  138.3767  165.6329 C.ar    1  UNL1       -0.0007
     25 C         138.6015  139.2718  166.8349 C.ar    1  UNL1       -0.0045
     26 C         139.8555  139.8976  167.3696 C.ar    1  UNL1       -0.0245
     27 C         139.7933  140.7928  168.5717 C.3     1  UNL1        0.0307
@<TRIPOS>BOND
     1     1     2    1
     2     2     3   ar
     3     3     4   ar
     4     4    17    1
     5    17    19    1
     6    19    20    1
     7    20    21   ar
     8    21    22    1
     9    21    23   ar
    10    23    24   ar
    11    24    25   ar
    12    25    26   ar
    13    26    27    1
    14     4     5   ar
    15     5     6   ar
    16     6     7   ar
    17     7     8   ar
    18     8     9   ar
    19     9    12    1
    20    12    13   am
    21    12    14    2
    22     9    10   ar
    23    10    11   ar
    24    11     2   ar
    25    26    20   ar
    26    10     5   ar
    27    17    18    1
    28    13    15    1
    29    13    16    1
@<TRIPOS>MOLECULE
*****
 27 29 0 0 0
SMALL
GASTEIGER

@<TRIPOS>ATOM
      1 C         138.2670  144.1303  164.6411 C.3     1  UNL1        0.0521
      2 C         139.6880  143.6755  164.7957 C.ar    1  UNL1        0.0606
      3 C         140.1384  143.0459  166.0805 C.ar    1  UNL1        0.0290
      4 C         141.5594  142.5911  166.2351 C.ar    1  UNL1        0.0475
      5 C         142.5300  142.7658  165.1049 C.ar    1  UNL1        0.0309
      6 C         143.9510  142.3110  165.2595 C.ar    1  UNL1        0.0027
      7 C         144.9216  142.4857  164.1293 C.ar    1  UNL1        0.0003
      8 C         144.4712  143.1153  162.8445 C.ar    1  UNL1        0.0060
      9 C         143.0502  143.5702  162.6899 C.ar    1  UNL1        0.0708
     10 C         142.0796  143.3954  163.8201 C.ar    1  UNL1        0.0864
     11 N         140.6586  143.8502  163.6655 N.ar    1  UNL1       -0.2494
     12 C         142.5998  144.1997  161.4050 C.2     1  UNL1        0.2442
     13 N         141.6853  145.3883  161.4324 N.am    1  UNL1       -0.3253
     14 O         143.0640  143.6407  160.0928 O.2     1  UNL1       -0.2703
     15 H         141.3806  145.7553  162.2937 H       1  UNL1        0.1453
     16 H         141.3897  145.8015  160.5892 H       1  UNL1        0.1453
     17 N         142.0098  141.9615  167.5199 N.pl3   1  UNL1       -0.3290
     18 H         142.4150  142.5168  168.2247 H       1  UNL1        0.1471
     19 C         141.8427  140.4859  167.7310 C.3     1  UNL1        0.1137
     20 C         140.6758  139.7682  167.1200 C.ar    1  UNL1       -0.0105
     21 C         139.3576  139.7352  167.8351 C.ar    1  UNL1       -0.0245
     22 C         139.2062  140.4199  169.1610 C.3     1  UNL1        0.0307
     23 C         138.1907  139.0175  167.2241 C.ar    1  UNL1       -0.0045
     24 C         138.3421  138.3328  165.8980 C.ar    1  UNL1       -0.0007
     25 C         139.6603  138.3658  165.1830 C.ar    1  UNL1       -0.0045
     26 C         140.8271  139.0835  165.7941 C.ar    1  UNL1       -0.0245
     27 C         142.1454  139.1165  165.0790 C.3     1  UNL1        0.0307
@<TRIPOS>BOND
     1     1     2    1
     2     2     3   ar
     3     3     4   ar
     4     4    17    1
     5    17    19    1
     6    19    20    1
     7    20    21   ar
     8    21    22    1
     9    21    23   ar
    10    23    24   ar
    11    24    25   ar
    12    25    26   ar
    13    26    27    1
    14     4     5   ar
    15     5     6   ar
    16     6     7   ar
    17     7     8   ar
    18     8     9   ar
    19     9    12    1
    20    12    13   am
    21    12    14    2
    22     9    10   ar
    23    10    11   ar
    24    11     2   ar
    25    26    20   ar
    26    10     5   ar
    27    17    18    1
    28    13    15    1
    29    13    16    1
@<TRIPOS>MOLECULE
*****
 27 29 0 0 0
SMALL
GASTEIGER

@<TRIPOS>ATOM
      1 C         143.6116  142.3846  168.9933 C.3     1  UNL1        0.0521
      2 C         142.6494  141.5905  168.1603 C.ar    1  UNL1        0.0606
      3 C         143.0029  141.2258  166.7490 C.ar    1  UNL1        0.0290
      4 C         142.0408  140.4318  165.9161 C.ar    1  UNL1        0.0475
      5 C         140.7251  140.0024  166.4945 C.ar    1  UNL1        0.0309
      6 C         139.7629  139.2083  165.6616 C.ar    1  UNL1        0.0027
      7 C         138.4473  138.7790  166.2401 C.ar    1  UNL1        0.0003
      8 C         138.0937  139.1437  167.6515 C.ar    1  UNL1        0.0060
      9 C         139.0559  139.9378  168.4844 C.ar    1  UNL1        0.0708
     10 C         140.3715  140.3671  167.9059 C.ar    1  UNL1        0.0864
     11 N         141.3337  141.1612  168.7388 N.ar    1  UNL1       -0.2494
     12 C         138.7023  140.3025  169.8958 C.2     1  UNL1        0.2442
     13 N         139.0931  141.6427  170.4444 N.am    1  UNL1       -0.3253
     14 O         137.9580  139.3270  170.7585 O.2     1  UNL1       -0.2703
     15 H         139.5816  142.2830  169.8782 H       1  UNL1        0.1453
     16 H         138.8610  141.8821  171.3707 H       1  UNL1        0.1453
     17 N         142.3943  140.0670  164.5047 N.pl3   1  UNL1       -0.3290
     18 H         142.8895  139.2363  164.3202 H       1  UNL1        0.1471
     19 C         141.9935  140.9679  163.3744 C.3     1  UNL1        0.1137
     20 C         142.0854  142.4567  163.5330 C.ar    1  UNL1       -0.0105
     21 C         143.4040  143.1497  163.3567 C.ar    1  UNL1       -0.0245
     22 C         144.6306  142.3540  163.0218 C.3     1  UNL1        0.0307
     23 C         143.4959  144.6384  163.5154 C.ar    1  UNL1       -0.0045
     24 C         142.2692  145.4342  163.8503 C.ar    1  UNL1       -0.0007
     25 C         140.9507  144.7411  164.0266 C.ar    1  UNL1       -0.0045
     26 C         140.8588  143.2524  163.8680 C.ar    1  UNL1       -0.0245
     27 C         139.5402  142.5593  164.0443 C.3     1  UNL1        0.0307
@<TRIPOS>BOND
     1     1     2    1
     2     2     3   ar
     3     3     4   ar
     4     4    17    1
     5    17    19    1
     6    19    20    1
     7    20    21   ar
     8    21    22    1
     9    21    23   ar
    10    23    24   ar
    11    24    25   ar
    12    25    26   ar
    13    26    27    1
    14     4     5   ar
    15     5     6   ar
    16     6     7   ar
    17     7     8   ar
    18     8     9   ar
    19     9    12    1
    20    12    13   am
    21    12    14    2
    22     9    10   ar
    23    10    11   ar
    24    11     2   ar
    25    26    20   ar
    26    10     5   ar
    27    17    18    1
    28    13    15    1
    29    13    16    1
@<TRIPOS>MOLECULE
*****
 27 29 0 0 0
SMALL
GASTEIGER

@<TRIPOS>ATOM
      1 C         144.0569  144.2439  164.6246 C.3     1  UNL1        0.0521
      2 C         142.9374  143.2759  164.8693 C.ar    1  UNL1        0.0606
      3 C         143.1931  142.0115  165.6348 C.ar    1  UNL1        0.0290
      4 C         142.0737  141.0435  165.8795 C.ar    1  UNL1        0.0475
      5 C         140.6986  141.3399  165.3587 C.ar    1  UNL1        0.0309
      6 C         139.5792  140.3719  165.6034 C.ar    1  UNL1        0.0027
      7 C         138.2041  140.6682  165.0825 C.ar    1  UNL1        0.0003
      8 C         137.9484  141.9326  164.3170 C.ar    1  UNL1        0.0060
      9 C         139.0678  142.9006  164.0723 C.ar    1  UNL1        0.0708
     10 C         140.4429  142.6042  164.5932 C.ar    1  UNL1        0.0864
     11 N         141.5623  143.5722  164.3485 N.ar    1  UNL1       -0.2494
     12 C         138.8121  144.1649  163.3068 C.2     1  UNL1        0.2442
     13 N         139.4337  145.4534  163.7577 N.am    1  UNL1       -0.3253
     14 O         137.9349  144.1408  162.0903 O.2     1  UNL1       -0.2703
     15 H         140.0094  145.4693  164.5562 H       1  UNL1        0.1453
     16 H         139.2658  146.2833  163.2553 H       1  UNL1        0.1453
     17 N         142.3294  139.7792  166.6450 N.pl3   1  UNL1       -0.3290
     18 H         142.0809  139.7206  167.5959 H       1  UNL1        0.1471
     19 C         142.9637  138.6040  165.9619 C.3     1  UNL1        0.1137
     20 C         142.8734  138.4646  164.4712 C.ar    1  UNL1       -0.0105
     21 C         143.9732  138.9956  163.6002 C.ar    1  UNL1       -0.0245
     22 C         145.1632  139.6660  164.2200 C.3     1  UNL1        0.0307
     23 C         143.8828  138.8561  162.1094 C.ar    1  UNL1       -0.0045
     24 C         142.6927  138.1856  161.4896 C.ar    1  UNL1       -0.0007
     25 C         141.5930  137.6546  162.3606 C.ar    1  UNL1       -0.0045
     26 C         141.6833  137.7941  163.8514 C.ar    1  UNL1       -0.0245
     27 C         140.5835  137.2631  164.7223 C.3     1  UNL1        0.0307
@<TRIPOS>BOND
     1     1     2    1
     2     2     3   ar
     3     3     4   ar
     4     4    17    1
     5    17    19    1
     6    19    20    1
     7    20    21   ar
     8    21    22    1
     9    21    23   ar
    10    23    24   ar
    11    24    25   ar
    12    25    26   ar
    13    26    27    1
    14     4     5   ar
    15     5     6   ar
    16     6     7   ar
    17     7     8   ar
    18     8     9   ar
    19     9    12    1
    20    12    13   am
    21    12    14    2
    22     9    10   ar
    23    10    11   ar
    24    11     2   ar
    25    26    20   ar
    26    10     5   ar
    27    17    18    1
    28    13    15    1
    29    13    16    1
