@<TRIPOS>MOLECULE
*****
 32 35 0 0 0
SMALL
GASTEIGER

@<TRIPOS>ATOM
      1 C         143.1897  138.6904  162.7867 C.ar    1  UNL1        0.0561
      2 C         144.3671  139.2803  163.5048 C.ar    1  UNL1        0.1035
      3 N         144.4217  139.2539  165.0035 N.ar    1  UNL1       -0.2289
      4 C         143.2988  138.6376  165.7842 C.ar    1  UNL1        0.1345
      5 C         142.1214  138.0477  165.0661 C.ar    1  UNL1        0.0488
      6 C         142.0669  138.0741  163.5674 C.ar    1  UNL1        0.0509
      7 C         143.6653  140.2714  157.7712 C.3     1  UNL1        0.0399
      8 C         143.3537  139.4434  158.9825 C.ar    1  UNL1        0.0281
      9 C         142.7483  138.0709  158.9805 C.ar    1  UNL1        0.1016
     10 N         142.6132  137.6219  160.4052 N.ar    1  UNL1       -0.2371
     11 C         143.1351  138.7167  161.2879 C.ar    1  UNL1        0.1131
     12 S         143.5927  139.8425  160.4086 S.2     1  UNL1       -0.0707
     13 N         143.3535  138.6113  167.2830 N.pl3   1  UNL1       -0.2821
     14 H         143.9397  137.9678  167.7430 H       1  UNL1        0.1551
     15 C         142.5149  139.5653  168.0809 C.ar    1  UNL1        0.1527
     16 C         142.2683  139.3089  169.5381 C.ar    1  UNL1        0.1340
     17 N         141.4297  140.2630  170.3361 N.ar    1  UNL1       -0.2290
     18 C         140.8379  141.4733  169.6768 C.ar    1  UNL1        0.1683
     19 C         141.0845  141.7297  168.2196 C.ar    1  UNL1        0.1299
     20 N         141.9230  140.7757  167.4217 N.ar    1  UNL1       -0.2251
     21 C         139.9993  142.4273  170.4747 C.1     1  UNL1        0.1214
     22 N         139.1608  143.3814  171.2727 N.1     1  UNL1       -0.1892
     23 N         140.8894  137.4842  162.8492 N.pl3   1  UNL1       -0.3305
     24 H         141.0204  137.0078  161.9976 H       1  UNL1        0.1469
     25 C         139.5125  137.6201  163.4285 C.3     1  UNL1        0.1184
     26 C         138.7850  138.9284  163.3343 C.3     1  UNL1        0.1503
     27 C         138.4307  139.6811  164.5825 C.3     1  UNL1        0.1003
     28 N         137.7031  140.9895  164.4882 N.3     1  UNL1       -0.2933
     29 C         137.3299  141.5451  163.1459 C.3     1  UNL1        0.1011
     30 C         137.6842  140.7924  161.8977 C.3     1  UNL1        0.1592
     31 O         138.4117  139.4841  161.9919 O.3     1  UNL1       -0.3516
     32 H         138.2922  141.6874  164.9423 H       1  UNL1        0.1234
@<TRIPOS>BOND
     1     7     8    1
     2     8     9   ar
     3     9    10   ar
     4    10    11   ar
     5    11     1    1
     6     1     2   ar
     7     2     3   ar
     8     3     4   ar
     9     4    13    1
    10    13    15    1
    11    15    16   ar
    12    16    17   ar
    13    17    18   ar
    14    18    21    1
    15    21    22    3
    16    18    19   ar
    17    19    20   ar
    18     4     5   ar
    19     5     6   ar
    20     6    23    1
    21    23    25    1
    22    26    25    1
    23    26    27    1
    24    27    28    1
    25    28    29    1
    26    29    30    1
    27    30    31    1
    28    11    12   ar
    29    12     8   ar
    30     6     1   ar
    31    31    26    1
    32    20    15   ar
    33    13    14    1
    34    23    24    1
    35    28    32    1
@<TRIPOS>MOLECULE
*****
 32 35 0 0 0
SMALL
GASTEIGER

@<TRIPOS>ATOM
      1 C         142.6606  138.4728  162.6672 C.ar    1  UNL1        0.0561
      2 C         141.7835  137.6735  163.5847 C.ar    1  UNL1        0.1035
      3 N         141.9999  137.7312  165.0678 N.ar    1  UNL1       -0.2289
      4 C         143.0934  138.5882  165.6335 C.ar    1  UNL1        0.1345
      5 C         143.9704  139.3875  164.7160 C.ar    1  UNL1        0.0488
      6 C         143.7540  139.3298  163.2328 C.ar    1  UNL1        0.0509
      7 C         140.3378  138.5186  157.9254 C.3     1  UNL1        0.0399
      8 C         141.3766  138.4361  159.0044 C.ar    1  UNL1        0.0281
      9 C         142.8461  138.2164  158.7986 C.ar    1  UNL1        0.1016
     10 N         143.5059  138.2034  160.1456 N.ar    1  UNL1       -0.2371
     11 C         142.4442  138.4151  161.1839 C.ar    1  UNL1        0.1131
     12 S         141.1283  138.5589  160.4786 S.2     1  UNL1       -0.0707
     13 N         143.3097  138.6459  167.1167 N.pl3   1  UNL1       -0.2821
     14 H         143.9889  138.0709  167.5379 H       1  UNL1        0.1551
     15 C         142.4913  139.5797  167.9583 C.ar    1  UNL1        0.1527
     16 C         141.3063  140.2814  167.3640 C.ar    1  UNL1        0.1340
     17 N         140.4879  141.2153  168.2056 N.ar    1  UNL1       -0.2290
     18 C         140.8545  141.4473  169.6415 C.ar    1  UNL1        0.1683
     19 C         142.0396  140.7456  170.2357 C.ar    1  UNL1        0.1299
     20 N         142.8580  139.8118  169.3942 N.ar    1  UNL1       -0.2251
     21 C         140.0362  142.3811  170.4830 C.1     1  UNL1        0.1214
     22 N         139.2177  143.3149  171.3246 N.1     1  UNL1       -0.1892
     23 N         144.6311  140.1291  162.3152 N.pl3   1  UNL1       -0.3305
     24 H         144.6576  139.9199  161.3536 H       1  UNL1        0.1469
     25 C         145.4677  141.2472  162.8628 C.3     1  UNL1        0.1184
     26 C         144.8388  142.5740  163.1691 C.3     1  UNL1        0.1503
     27 C         144.3913  143.4679  162.0507 C.3     1  UNL1        0.1003
     28 N         143.7623  144.7949  162.3570 N.3     1  UNL1       -0.2933
     29 C         143.5808  145.2278  163.7816 C.3     1  UNL1        0.1011
     30 C         144.0282  144.3339  164.9000 C.3     1  UNL1        0.1592
     31 O         144.6572  143.0071  164.5937 O.3     1  UNL1       -0.3516
     32 H         142.8354  144.7866  161.9314 H       1  UNL1        0.1234
@<TRIPOS>BOND
     1     7     8    1
     2     8     9   ar
     3     9    10   ar
     4    10    11   ar
     5    11     1    1
     6     1     2   ar
     7     2     3   ar
     8     3     4   ar
     9     4    13    1
    10    13    15    1
    11    15    16   ar
    12    16    17   ar
    13    17    18   ar
    14    18    21    1
    15    21    22    3
    16    18    19   ar
    17    19    20   ar
    18     4     5   ar
    19     5     6   ar
    20     6    23    1
    21    23    25    1
    22    26    25    1
    23    26    27    1
    24    27    28    1
    25    28    29    1
    26    29    30    1
    27    30    31    1
    28    11    12   ar
    29    12     8   ar
    30     6     1   ar
    31    31    26    1
    32    20    15   ar
    33    13    14    1
    34    23    24    1
    35    28    32    1
@<TRIPOS>MOLECULE
*****
 32 35 0 0 0
SMALL
GASTEIGER

@<TRIPOS>ATOM
      1 C         138.7016  139.4777  162.6178 C.ar    1  UNL1        0.0561
      2 C         139.1594  138.2420  163.3344 C.ar    1  UNL1        0.1035
      3 N         139.1503  138.1977  164.8337 N.ar    1  UNL1       -0.2289
      4 C         138.6834  139.3891  165.6164 C.ar    1  UNL1        0.1345
      5 C         138.2257  140.6248  164.8999 C.ar    1  UNL1        0.0488
      6 C         138.2348  140.6691  163.4006 C.ar    1  UNL1        0.0509
      7 C         139.9652  138.5581  157.5741 C.3     1  UNL1        0.0399
      8 C         139.2915  139.0994  158.8002 C.ar    1  UNL1        0.0281
      9 C         138.1578  140.0815  158.8224 C.ar    1  UNL1        0.1016
     10 N         137.7989  140.3427  160.2552 N.ar    1  UNL1       -0.2371
     11 C         138.7107  139.5221  161.1185 C.ar    1  UNL1        0.1131
     12 S         139.6332  138.7537  160.2192 S.2     1  UNL1       -0.0707
     13 N         138.6743  139.3447  167.1158 N.pl3   1  UNL1       -0.2821
     14 H         138.0664  138.7297  167.5864 H       1  UNL1        0.1551
     15 C         139.5914  140.2374  167.8981 C.ar    1  UNL1        0.1527
     16 C         140.8147  140.8115  167.2470 C.ar    1  UNL1        0.1340
     17 N         141.7318  141.7042  168.0294 N.ar    1  UNL1       -0.2290
     18 C         141.4255  142.0228  169.4628 C.ar    1  UNL1        0.1683
     19 C         140.2022  141.4487  170.1139 C.ar    1  UNL1        0.1299
     20 N         139.2851  140.5560  169.3316 N.ar    1  UNL1       -0.2251
     21 C         142.3426  142.9155  170.2451 C.1     1  UNL1        0.1214
     22 N         143.2597  143.8082  171.0276 N.1     1  UNL1       -0.1892
     23 N         137.7770  141.9048  162.6840 N.pl3   1  UNL1       -0.3305
     24 H         137.4036  141.8373  161.7755 H       1  UNL1        0.1469
     25 C         137.8883  143.2435  163.3515 C.3     1  UNL1        0.1184
     26 C         139.2155  143.9389  163.4210 C.3     1  UNL1        0.1503
     27 C         139.4059  145.2615  162.7393 C.3     1  UNL1        0.1003
     28 N         140.7332  145.9569  162.8089 N.3     1  UNL1       -0.2933
     29 C         141.8700  145.3298  163.5601 C.3     1  UNL1        0.1011
     30 C         141.6796  144.0072  164.2418 C.3     1  UNL1        0.1592
     31 O         140.3524  143.3118  164.1722 O.3     1  UNL1       -0.3516
     32 H         140.5660  146.8684  163.2349 H       1  UNL1        0.1234
@<TRIPOS>BOND
     1     7     8    1
     2     8     9   ar
     3     9    10   ar
     4    10    11   ar
     5    11     1    1
     6     1     2   ar
     7     2     3   ar
     8     3     4   ar
     9     4    13    1
    10    13    15    1
    11    15    16   ar
    12    16    17   ar
    13    17    18   ar
    14    18    21    1
    15    21    22    3
    16    18    19   ar
    17    19    20   ar
    18     4     5   ar
    19     5     6   ar
    20     6    23    1
    21    23    25    1
    22    26    25    1
    23    26    27    1
    24    27    28    1
    25    28    29    1
    26    29    30    1
    27    30    31    1
    28    11    12   ar
    29    12     8   ar
    30     6     1   ar
    31    31    26    1
    32    20    15   ar
    33    13    14    1
    34    23    24    1
    35    28    32    1
@<TRIPOS>MOLECULE
*****
 32 35 0 0 0
SMALL
GASTEIGER

@<TRIPOS>ATOM
      1 C         138.9276  141.4547  160.7949 C.ar    1  UNL1        0.0561
      2 C         139.5464  140.0886  160.7693 C.ar    1  UNL1        0.1035
      3 N         139.3593  139.1587  161.9313 N.ar    1  UNL1       -0.2289
      4 C         138.5535  139.5949  163.1188 C.ar    1  UNL1        0.1345
      5 C         137.9347  140.9610  163.1444 C.ar    1  UNL1        0.0488
      6 C         138.1217  141.8909  161.9824 C.ar    1  UNL1        0.0509
      7 C         138.9247  143.4437  155.9035 C.3     1  UNL1        0.0399
      8 C         139.1133  143.2989  157.3846 C.ar    1  UNL1        0.0281
      9 C         139.6916  144.3327  158.3050 C.ar    1  UNL1        0.1016
     10 N         139.6923  143.7676  159.6945 N.ar    1  UNL1       -0.2371
     11 C         139.1146  142.3847  159.6328 C.ar    1  UNL1        0.1131
     12 S         138.7567  142.0950  158.2053 S.2     1  UNL1       -0.0707
     13 N         138.3664  138.6649  164.2809 N.pl3   1  UNL1       -0.2821
     14 H         137.9973  137.7638  164.1357 H       1  UNL1        0.1551
     15 C         138.7417  139.1078  165.6639 C.ar    1  UNL1        0.1527
     16 C         137.8648  138.7545  166.8285 C.ar    1  UNL1        0.1340
     17 N         138.2402  139.1974  168.2116 N.ar    1  UNL1       -0.2290
     18 C         139.4924  139.9937  168.4301 C.ar    1  UNL1        0.1683
     19 C         140.3693  140.3471  167.2655 C.ar    1  UNL1        0.1299
     20 N         139.9940  139.9042  165.8825 N.ar    1  UNL1       -0.2251
     21 C         139.8678  140.4367  169.8132 C.1     1  UNL1        0.1214
     22 N         140.2432  140.8796  171.1963 N.1     1  UNL1       -0.1892
     23 N         137.5029  143.2572  162.0080 N.pl3   1  UNL1       -0.3305
     24 H         136.8375  143.5090  161.3274 H       1  UNL1        0.1469
     25 C         137.8978  144.2396  163.0704 C.3     1  UNL1        0.1184
     26 C         139.3484  144.4882  163.3602 C.3     1  UNL1        0.1503
     27 C         140.0456  145.6645  162.7437 C.3     1  UNL1        0.1003
     28 N         141.4962  145.9130  163.0336 N.3     1  UNL1       -0.2933
     29 C         142.2496  144.9852  163.9400 C.3     1  UNL1        0.1011
     30 C         141.5524  143.8088  164.5565 C.3     1  UNL1        0.1592
     31 O         140.1018  143.5603  164.2666 O.3     1  UNL1       -0.3516
     32 H         141.5588  146.8435  163.4469 H       1  UNL1        0.1234
@<TRIPOS>BOND
     1     7     8    1
     2     8     9   ar
     3     9    10   ar
     4    10    11   ar
     5    11     1    1
     6     1     2   ar
     7     2     3   ar
     8     3     4   ar
     9     4    13    1
    10    13    15    1
    11    15    16   ar
    12    16    17   ar
    13    17    18   ar
    14    18    21    1
    15    21    22    3
    16    18    19   ar
    17    19    20   ar
    18     4     5   ar
    19     5     6   ar
    20     6    23    1
    21    23    25    1
    22    26    25    1
    23    26    27    1
    24    27    28    1
    25    28    29    1
    26    29    30    1
    27    30    31    1
    28    11    12   ar
    29    12     8   ar
    30     6     1   ar
    31    31    26    1
    32    20    15   ar
    33    13    14    1
    34    23    24    1
    35    28    32    1
@<TRIPOS>MOLECULE
*****
 32 35 0 0 0
SMALL
GASTEIGER

@<TRIPOS>ATOM
      1 C         142.1889  143.9183  161.4931 C.ar    1  UNL1        0.0561
      2 C         143.0728  142.7199  161.6734 C.ar    1  UNL1        0.1035
      3 N         143.6397  142.4028  163.0255 N.ar    1  UNL1       -0.2289
      4 C         143.3227  143.2840  164.1972 C.ar    1  UNL1        0.1345
      5 C         142.4388  144.4823  164.0169 C.ar    1  UNL1        0.0488
      6 C         141.8719  144.7995  162.6649 C.ar    1  UNL1        0.0509
      7 C         139.6961  143.4645  156.8605 C.3     1  UNL1        0.0399
      8 C         140.4762  144.0269  158.0117 C.ar    1  UNL1        0.0281
      9 C         141.0230  145.4203  158.1093 C.ar    1  UNL1        0.1016
     10 N         141.7311  145.5492  159.4253 N.ar    1  UNL1       -0.2371
     11 C         141.6220  144.2355  160.1411 C.ar    1  UNL1        0.1131
     12 S         140.8464  143.2947  159.2674 S.2     1  UNL1       -0.0707
     13 N         143.8896  142.9668  165.5493 N.pl3   1  UNL1       -0.2821
     14 H         144.8304  143.1763  165.7501 H       1  UNL1        0.1551
     15 C         143.0233  142.3303  166.5953 C.ar    1  UNL1        0.1527
     16 C         141.8562  141.4808  166.1873 C.ar    1  UNL1        0.1340
     17 N         140.9898  140.8444  167.2335 N.ar    1  UNL1       -0.2290
     18 C         141.2905  141.0573  168.6875 C.ar    1  UNL1        0.1683
     19 C         142.4575  141.9068  169.0954 C.ar    1  UNL1        0.1299
     20 N         143.3239  142.5433  168.0494 N.ar    1  UNL1       -0.2251
     21 C         140.4241  140.4209  169.7335 C.1     1  UNL1        0.1214
     22 N         139.5577  139.7844  170.7796 N.1     1  UNL1       -0.1892
     23 N         140.9879  145.9979  162.4845 N.pl3   1  UNL1       -0.3305
     24 H         141.3751  146.9028  162.5057 H       1  UNL1        0.1469
     25 C         139.5140  145.8175  162.2719 C.3     1  UNL1        0.1184
     26 C         138.8422  144.5508  162.7125 C.3     1  UNL1        0.1503
     27 C         138.5809  144.3082  164.1695 C.3     1  UNL1        0.1003
     28 N         137.9090  143.0414  164.6102 N.3     1  UNL1       -0.2933
     29 C         137.4985  142.0175  163.5938 C.3     1  UNL1        0.1011
     30 C         137.7598  142.2602  162.1369 C.3     1  UNL1        0.1592
     31 O         138.4316  143.5268  161.6962 O.3     1  UNL1       -0.3516
     32 H         137.0633  143.3153  165.1104 H       1  UNL1        0.1234
@<TRIPOS>BOND
     1     7     8    1
     2     8     9   ar
     3     9    10   ar
     4    10    11   ar
     5    11     1    1
     6     1     2   ar
     7     2     3   ar
     8     3     4   ar
     9     4    13    1
    10    13    15    1
    11    15    16   ar
    12    16    17   ar
    13    17    18   ar
    14    18    21    1
    15    21    22    3
    16    18    19   ar
    17    19    20   ar
    18     4     5   ar
    19     5     6   ar
    20     6    23    1
    21    23    25    1
    22    26    25    1
    23    26    27    1
    24    27    28    1
    25    28    29    1
    26    29    30    1
    27    30    31    1
    28    11    12   ar
    29    12     8   ar
    30     6     1   ar
    31    31    26    1
    32    20    15   ar
    33    13    14    1
    34    23    24    1
    35    28    32    1
@<TRIPOS>MOLECULE
*****
 32 35 0 0 0
SMALL
GASTEIGER

@<TRIPOS>ATOM
      1 C         141.0727  139.6788  166.3735 C.ar    1  UNL1        0.0561
      2 C         142.5207  139.3183  166.2212 C.ar    1  UNL1        0.1035
      3 N         142.9920  138.6139  164.9836 N.ar    1  UNL1       -0.2289
      4 C         142.0153  138.2701  163.8983 C.ar    1  UNL1        0.1345
      5 C         140.5673  138.6306  164.0506 C.ar    1  UNL1        0.0488
      6 C         140.0960  139.3349  165.2882 C.ar    1  UNL1        0.0509
      7 C         140.3006  143.3798  170.0597 C.3     1  UNL1        0.0399
      8 C         140.2464  142.0843  169.3055 C.ar    1  UNL1        0.0281
      9 C         139.5053  140.8497  169.7258 C.ar    1  UNL1        0.1016
     10 N         139.7246  139.7984  168.6787 N.ar    1  UNL1       -0.2371
     11 C         140.6013  140.3832  167.6112 C.ar    1  UNL1        0.1131
     12 S         140.9237  141.7959  167.9986 S.2     1  UNL1       -0.0707
     13 N         142.4867  137.5657  162.6607 N.pl3   1  UNL1       -0.2821
     14 H         142.5094  136.5818  162.6327 H       1  UNL1        0.1551
     15 C         142.9236  138.3602  161.4659 C.ar    1  UNL1        0.1527
     16 C         142.8680  137.7487  160.0973 C.ar    1  UNL1        0.1340
     17 N         143.3050  138.5434  158.9024 N.ar    1  UNL1       -0.2290
     18 C         143.7975  139.9495  159.0762 C.ar    1  UNL1        0.1683
     19 C         143.8531  140.5610  160.4447 C.ar    1  UNL1        0.1299
     20 N         143.4162  139.7664  161.6395 N.ar    1  UNL1       -0.2251
     21 C         144.2344  140.7441  157.8813 C.1     1  UNL1        0.1214
     22 N         144.6713  141.5387  156.6864 N.1     1  UNL1       -0.1892
     23 N         138.6479  139.6955  165.4406 N.pl3   1  UNL1       -0.3305
     24 H         138.1878  139.5343  166.2959 H       1  UNL1        0.1469
     25 C         137.9008  140.3016  164.2897 C.3     1  UNL1        0.1184
     26 C         138.0747  141.7557  163.9652 C.3     1  UNL1        0.1503
     27 C         137.5619  142.3005  162.6651 C.3     1  UNL1        0.1003
     28 N         137.7358  143.7547  162.3406 N.3     1  UNL1       -0.2933
     29 C         138.4224  144.6639  163.3161 C.3     1  UNL1        0.1011
     30 C         138.9351  144.1191  164.6162 C.3     1  UNL1        0.1592
     31 O         138.7613  142.6650  164.9407 O.3     1  UNL1       -0.3516
     32 H         136.8020  144.1363  162.1893 H       1  UNL1        0.1234
@<TRIPOS>BOND
     1     7     8    1
     2     8     9   ar
     3     9    10   ar
     4    10    11   ar
     5    11     1    1
     6     1     2   ar
     7     2     3   ar
     8     3     4   ar
     9     4    13    1
    10    13    15    1
    11    15    16   ar
    12    16    17   ar
    13    17    18   ar
    14    18    21    1
    15    21    22    3
    16    18    19   ar
    17    19    20   ar
    18     4     5   ar
    19     5     6   ar
    20     6    23    1
    21    23    25    1
    22    26    25    1
    23    26    27    1
    24    27    28    1
    25    28    29    1
    26    29    30    1
    27    30    31    1
    28    11    12   ar
    29    12     8   ar
    30     6     1   ar
    31    31    26    1
    32    20    15   ar
    33    13    14    1
    34    23    24    1
    35    28    32    1
@<TRIPOS>MOLECULE
*****
 32 35 0 0 0
SMALL
GASTEIGER

@<TRIPOS>ATOM
      1 C         143.1505  138.6547  162.5380 C.ar    1  UNL1        0.0561
      2 C         144.2264  139.4930  163.1624 C.ar    1  UNL1        0.1035
      3 N         144.3031  139.6251  164.6546 N.ar    1  UNL1       -0.2289
      4 C         143.3039  138.9190  165.5224 C.ar    1  UNL1        0.1345
      5 C         142.2281  138.0807  164.8980 C.ar    1  UNL1        0.0488
      6 C         142.1514  137.9486  163.4059 C.ar    1  UNL1        0.0509
      7 C         143.0647  139.8278  157.3904 C.3     1  UNL1        0.0399
      8 C         143.0343  139.0617  158.6797 C.ar    1  UNL1        0.0281
      9 C         142.8770  137.5765  158.8194 C.ar    1  UNL1        0.1016
     10 N         142.9014  137.2433  160.2817 N.ar    1  UNL1       -0.2371
     11 C         143.0738  138.5226  161.0458 C.ar    1  UNL1        0.1131
     12 S         143.1559  139.6464  160.0557 S.2     1  UNL1       -0.0707
     13 N         143.3807  139.0511  167.0146 N.pl3   1  UNL1       -0.2821
     14 H         143.8718  138.3815  167.5435 H       1  UNL1        0.1551
     15 C         142.7091  140.2034  167.7010 C.ar    1  UNL1        0.1527
     16 C         141.7927  141.1056  166.9289 C.ar    1  UNL1        0.1340
     17 N         141.1211  142.2579  167.6153 N.ar    1  UNL1       -0.2290
     18 C         141.3659  142.5080  169.0739 C.ar    1  UNL1        0.1683
     19 C         142.2822  141.6057  169.8461 C.ar    1  UNL1        0.1299
     20 N         142.9538  140.4535  169.1597 N.ar    1  UNL1       -0.2251
     21 C         140.6943  143.6602  169.7603 C.1     1  UNL1        0.1214
     22 N         140.0228  144.8126  170.4468 N.1     1  UNL1       -0.1892
     23 N         141.0755  137.1103  162.7814 N.pl3   1  UNL1       -0.3305
     24 H         141.3091  136.2707  162.3234 H       1  UNL1        0.1469
     25 C         139.6437  137.5512  162.8549 C.3     1  UNL1        0.1184
     26 C         139.0891  138.4756  161.8119 C.3     1  UNL1        0.1503
     27 C         139.4475  138.2792  160.3686 C.3     1  UNL1        0.1003
     28 N         138.8929  139.2036  159.3256 N.3     1  UNL1       -0.2933
     29 C         137.9800  140.3245  159.7258 C.3     1  UNL1        0.1011
     30 C         137.6216  140.5210  161.1691 C.3     1  UNL1        0.1592
     31 O         138.1761  139.5966  162.2121 O.3     1  UNL1       -0.3516
     32 H         138.3757  138.6247  158.6639 H       1  UNL1        0.1234
@<TRIPOS>BOND
     1     7     8    1
     2     8     9   ar
     3     9    10   ar
     4    10    11   ar
     5    11     1    1
     6     1     2   ar
     7     2     3   ar
     8     3     4   ar
     9     4    13    1
    10    13    15    1
    11    15    16   ar
    12    16    17   ar
    13    17    18   ar
    14    18    21    1
    15    21    22    3
    16    18    19   ar
    17    19    20   ar
    18     4     5   ar
    19     5     6   ar
    20     6    23    1
    21    23    25    1
    22    26    25    1
    23    26    27    1
    24    27    28    1
    25    28    29    1
    26    29    30    1
    27    30    31    1
    28    11    12   ar
    29    12     8   ar
    30     6     1   ar
    31    31    26    1
    32    20    15   ar
    33    13    14    1
    34    23    24    1
    35    28    32    1
@<TRIPOS>MOLECULE
*****
 32 35 0 0 0
SMALL
GASTEIGER

@<TRIPOS>ATOM
      1 C         139.9341  141.5614  166.7926 C.ar    1  UNL1        0.0561
      2 C         139.4733  140.1343  166.8211 C.ar    1  UNL1        0.1035
      3 N         138.6066  139.6038  165.7178 N.ar    1  UNL1       -0.2289
      4 C         138.2006  140.5005  164.5859 C.ar    1  UNL1        0.1345
      5 C         138.6614  141.9277  164.5574 C.ar    1  UNL1        0.0488
      6 C         139.5281  142.4582  165.6607 C.ar    1  UNL1        0.0509
      7 C         144.0804  142.4327  169.9438 C.3     1  UNL1        0.0399
      8 C         142.7067  142.4924  169.3444 C.ar    1  UNL1        0.0281
      9 C         141.5624  143.3243  169.8432 C.ar    1  UNL1        0.1016
     10 N         140.3846  143.0768  168.9480 N.ar    1  UNL1       -0.2371
     11 C         140.8008  142.0920  167.8959 C.ar    1  UNL1        0.1131
     12 S         142.2359  141.7308  168.1409 S.2     1  UNL1       -0.0707
     13 N         137.3339  139.9700  163.4825 N.pl3   1  UNL1       -0.2821
     14 H         136.3660  139.8609  163.6261 H       1  UNL1        0.1551
     15 C         137.9418  139.6058  162.1605 C.ar    1  UNL1        0.1527
     16 C         138.7199  138.3313  162.0185 C.ar    1  UNL1        0.1340
     17 N         139.3278  137.9671  160.6964 N.ar    1  UNL1       -0.2290
     18 C         139.1575  138.8773  159.5164 C.ar    1  UNL1        0.1683
     19 C         138.3793  140.1517  159.6584 C.ar    1  UNL1        0.1299
     20 N         137.7714  140.5160  160.9804 N.ar    1  UNL1       -0.2251
     21 C         139.7654  138.5130  158.1944 C.1     1  UNL1        0.1214
     22 N         140.3733  138.1488  156.8723 N.1     1  UNL1       -0.1892
     23 N         139.9890  143.8854  165.6322 N.pl3   1  UNL1       -0.3305
     24 H         140.0748  144.3918  166.4721 H       1  UNL1        0.1469
     25 C         140.3189  144.5410  164.3240 C.3     1  UNL1        0.1184
     26 C         141.6459  144.2881  163.6720 C.3     1  UNL1        0.1503
     27 C         142.6015  145.4231  163.4514 C.3     1  UNL1        0.1003
     28 N         143.9286  145.1702  162.7994 N.3     1  UNL1       -0.2933
     29 C         144.2999  143.7824  162.3680 C.3     1  UNL1        0.1011
     30 C         143.3443  142.6475  162.5886 C.3     1  UNL1        0.1592
     31 O         142.0173  142.9003  163.2406 O.3     1  UNL1       -0.3516
     32 H         144.6439  145.4745  163.4598 H       1  UNL1        0.1234
@<TRIPOS>BOND
     1     7     8    1
     2     8     9   ar
     3     9    10   ar
     4    10    11   ar
     5    11     1    1
     6     1     2   ar
     7     2     3   ar
     8     3     4   ar
     9     4    13    1
    10    13    15    1
    11    15    16   ar
    12    16    17   ar
    13    17    18   ar
    14    18    21    1
    15    21    22    3
    16    18    19   ar
    17    19    20   ar
    18     4     5   ar
    19     5     6   ar
    20     6    23    1
    21    23    25    1
    22    26    25    1
    23    26    27    1
    24    27    28    1
    25    28    29    1
    26    29    30    1
    27    30    31    1
    28    11    12   ar
    29    12     8   ar
    30     6     1   ar
    31    31    26    1
    32    20    15   ar
    33    13    14    1
    34    23    24    1
    35    28    32    1
@<TRIPOS>MOLECULE
*****
 32 35 0 0 0
SMALL
GASTEIGER

@<TRIPOS>ATOM
      1 C         142.2673  140.3574  166.7780 C.ar    1  UNL1        0.0561
      2 C         142.8394  138.9889  166.5546 C.ar    1  UNL1        0.1035
      3 N         143.6912  138.7197  165.3497 N.ar    1  UNL1       -0.2289
      4 C         143.9710  139.8190  164.3682 C.ar    1  UNL1        0.1345
      5 C         143.3989  141.1874  164.5916 C.ar    1  UNL1        0.0488
      6 C         142.5470  141.4566  165.7965 C.ar    1  UNL1        0.0509
      7 C         138.2970  140.2088  170.2560 C.3     1  UNL1        0.0399
      8 C         139.5905  140.5583  169.5816 C.ar    1  UNL1        0.0281
      9 C         140.6186  141.5237  170.0927 C.ar    1  UNL1        0.1016
     10 N         141.7464  141.5659  169.1047 N.ar    1  UNL1       -0.2371
     11 C         141.4154  140.6266  167.9829 C.ar    1  UNL1        0.1131
     12 S         140.0830  140.0039  168.2777 S.2     1  UNL1       -0.0707
     13 N         144.8229  139.5497  163.1632 N.pl3   1  UNL1       -0.2821
     14 H         145.8038  139.5936  163.2342 H       1  UNL1        0.1551
     15 C         144.1802  139.2136  161.8503 C.ar    1  UNL1        0.1527
     16 C         143.9900  140.2806  160.8133 C.ar    1  UNL1        0.1340
     17 N         143.3473  139.9444  159.5003 N.ar    1  UNL1       -0.2290
     18 C         142.8947  138.5412  159.2243 C.ar    1  UNL1        0.1683
     19 C         143.0849  137.4742  160.2613 C.ar    1  UNL1        0.1299
     20 N         143.7276  137.8103  161.5742 N.ar    1  UNL1       -0.2251
     21 C         142.2520  138.2051  157.9114 C.1     1  UNL1        0.1214
     22 N         141.6093  137.8690  156.5983 N.1     1  UNL1       -0.1892
     23 N         141.9749  142.8252  166.0200 N.pl3   1  UNL1       -0.3305
     24 H         142.5144  143.5175  166.4659 H       1  UNL1        0.1469
     25 C         140.5808  143.1389  165.5639 C.3     1  UNL1        0.1184
     26 C         140.3612  144.0720  164.4102 C.3     1  UNL1        0.1503
     27 C         141.4623  144.9892  163.9673 C.3     1  UNL1        0.1003
     28 N         141.2427  145.9223  162.8136 N.3     1  UNL1       -0.2933
     29 C         139.9219  145.9383  162.1028 C.3     1  UNL1        0.1011
     30 C         138.8207  145.0211  162.5457 C.3     1  UNL1        0.1592
     31 O         139.0403  144.0879  163.6994 O.3     1  UNL1       -0.3516
     32 H         141.9506  145.6979  162.1144 H       1  UNL1        0.1234
@<TRIPOS>BOND
     1     7     8    1
     2     8     9   ar
     3     9    10   ar
     4    10    11   ar
     5    11     1    1
     6     1     2   ar
     7     2     3   ar
     8     3     4   ar
     9     4    13    1
    10    13    15    1
    11    15    16   ar
    12    16    17   ar
    13    17    18   ar
    14    18    21    1
    15    21    22    3
    16    18    19   ar
    17    19    20   ar
    18     4     5   ar
    19     5     6   ar
    20     6    23    1
    21    23    25    1
    22    26    25    1
    23    26    27    1
    24    27    28    1
    25    28    29    1
    26    29    30    1
    27    30    31    1
    28    11    12   ar
    29    12     8   ar
    30     6     1   ar
    31    31    26    1
    32    20    15   ar
    33    13    14    1
    34    23    24    1
    35    28    32    1
