@<TRIPOS>MOLECULE
*****
 34 38 0 0 0
SMALL
GASTEIGER

@<TRIPOS>ATOM
      1 N         140.6233  138.3494  160.6209 N.3     1  UNL1       -0.2673
      2 C         142.0666  138.7383  160.7446 C.3     1  UNL1        0.1035
      3 C         142.7357  138.7208  162.0870 C.3     1  UNL1        0.1470
      4 C         143.4048  138.7033  163.4294 C.3     1  UNL1        0.1039
      5 N         142.6305  138.2969  164.6481 N.3     1  UNL1       -0.2606
      6 C         141.1870  137.9080  164.5244 C.3     1  UNL1        0.1039
      7 C         140.5180  137.9255  163.1820 C.3     1  UNL1        0.1470
      8 C         139.8489  137.9430  161.8396 C.3     1  UNL1        0.1035
      9 O         141.9614  138.3144  163.3057 O.3     1  UNL1       -0.3530
     10 C         139.9541  138.3669  159.2785 C.3     1  UNL1        0.0913
     11 C         139.5645  139.6727  158.6517 C.3     1  UNL1        0.1087
     12 N         138.2952  140.3552  159.0677 N.3     1  UNL1       -0.1780
     13 H         138.0073  140.9436  158.2858 H       1  UNL1        0.1488
     14 S         138.2761  141.2219  160.2918 S.O2    1  UNL1        0.0603
     15 O         139.1586  142.2182  159.6002 O.2     1  UNL1       -0.1530
     16 O         137.3936  140.2256  160.9835 O.2     1  UNL1       -0.1530
     17 C         138.2189  143.8220  163.9642 C.ar    1  UNL1        0.0685
     18 C         137.5405  142.4843  163.9817 C.ar    1  UNL1        0.0116
     19 C         137.5595  141.6176  162.7575 C.ar    1  UNL1        0.0206
     20 C         138.2570  142.0886  161.5159 C.ar    1  UNL1        0.1220
     21 C         138.9355  143.4263  161.4984 C.ar    1  UNL1        0.0206
     22 C         138.9165  144.2930  162.7225 C.ar    1  UNL1        0.0116
     23 N         138.1808  145.5553  166.4125 N.1     1  UNL1       -0.1908
     24 C         138.1999  144.6887  165.1883 C.1     1  UNL1        0.1004
     25 C         143.2995  138.2794  165.9905 C.3     1  UNL1        0.1588
     26 C         142.8704  139.2452  167.0550 C.ar    1  UNL1        0.2221
     27 N         143.0214  139.0506  168.5347 N.ar    1  UNL1       -0.2109
     28 C         142.4593  140.2602  169.2210 C.ar    1  UNL1        0.1186
     29 C         142.3368  140.6255  170.6706 C.ar    1  UNL1        0.0223
     30 C         141.7161  141.9330  171.0648 C.ar    1  UNL1        0.0017
     31 C         141.2179  142.8751  170.0093 C.ar    1  UNL1        0.0032
     32 C         141.3403  142.5098  168.5595 C.ar    1  UNL1        0.0391
     33 C         141.9610  141.2024  168.1654 C.ar    1  UNL1        0.1644
     34 O         142.2152  140.5750  166.8268 O.2     1  UNL1       -0.4370
@<TRIPOS>BOND
     1    23    24    3
     2    24    17    1
     3    17    18   ar
     4    18    19   ar
     5    19    20   ar
     6    20    14    1
     7    14    15    2
     8    14    16    2
     9    14    12    1
    10    12    11    1
    11    11    10    1
    12    10     1    1
    13     1     2    1
    14     2     3    1
    15     3     4    1
    16     4     5    1
    17     5    25    1
    18    25    26    1
    19    26    27   ar
    20    27    28   ar
    21    28    29   ar
    22    29    30   ar
    23    30    31   ar
    24    31    32   ar
    25    32    33   ar
    26    33    34   ar
    27     5     6    1
    28     6     7    1
    29     7     8    1
    30     7     9    1
    31    20    21   ar
    32    21    22   ar
    33    22    17   ar
    34     8     1    1
    35     9     3    1
    36    34    26   ar
    37    33    28   ar
    38    12    13    1
@<TRIPOS>MOLECULE
*****
 34 38 0 0 0
SMALL
GASTEIGER

@<TRIPOS>ATOM
      1 N         138.2686  141.6279  160.2691 N.3     1  UNL1       -0.2673
      2 C         138.5688  140.1609  160.3563 C.3     1  UNL1        0.1035
      3 C         138.5968  139.4793  161.6922 C.3     1  UNL1        0.1470
      4 C         138.6249  138.7976  163.0281 C.3     1  UNL1        0.1039
      5 N         138.3527  139.5831  164.2767 N.3     1  UNL1       -0.2606
      6 C         138.0526  141.0502  164.1894 C.3     1  UNL1        0.1039
      7 C         138.0245  141.7318  162.8535 C.3     1  UNL1        0.1470
      8 C         137.9965  142.4134  161.5177 C.3     1  UNL1        0.1035
      9 O         138.3247  140.2647  162.9408 O.3     1  UNL1       -0.3530
     10 C         138.2406  142.3096  158.9331 C.3     1  UNL1        0.0913
     11 C         139.4352  143.0842  158.4612 C.3     1  UNL1        0.1087
     12 N         139.8098  144.3703  159.1363 N.3     1  UNL1       -0.1780
     13 H         140.2502  144.9573  158.4279 H       1  UNL1        0.1488
     14 S         140.7308  144.3554  160.3201 S.O2    1  UNL1        0.0603
     15 O         141.5567  143.2889  159.6641 O.2     1  UNL1       -0.1530
     16 O         139.9049  145.4220  160.9761 O.2     1  UNL1       -0.1530
     17 C         143.4940  144.3108  163.8715 C.ar    1  UNL1        0.0685
     18 C         142.1929  145.0537  163.9429 C.ar    1  UNL1        0.0116
     19 C         141.2718  145.0686  162.7591 C.ar    1  UNL1        0.0206
     20 C         141.6518  144.3406  161.5039 C.ar    1  UNL1        0.1220
     21 C         142.9530  143.5976  161.4325 C.ar    1  UNL1        0.0206
     22 C         143.8741  143.5827  162.6163 C.ar    1  UNL1        0.0116
     23 N         145.3361  144.2810  166.2392 N.1     1  UNL1       -0.1908
     24 C         144.4151  144.2959  165.0553 C.1     1  UNL1        0.1004
     25 C         138.3808  138.9015  165.6126 C.3     1  UNL1        0.1588
     26 C         139.3117  139.3880  166.6835 C.ar    1  UNL1        0.2221
     27 N         140.7378  139.8095  166.4871 N.ar    1  UNL1       -0.2109
     28 C         141.2875  140.2205  167.8210 C.ar    1  UNL1        0.1186
     29 C         142.6369  140.7256  168.2380 C.ar    1  UNL1        0.0223
     30 C         142.8999  141.0632  169.6757 C.ar    1  UNL1        0.0017
     31 C         141.8135  140.8957  170.6963 C.ar    1  UNL1        0.0032
     32 C         140.4641  140.3905  170.2793 C.ar    1  UNL1        0.0391
     33 C         140.2010  140.0530  168.8416 C.ar    1  UNL1        0.1644
     34 O         138.9800  139.5385  168.1386 O.2     1  UNL1       -0.4370
@<TRIPOS>BOND
     1    23    24    3
     2    24    17    1
     3    17    18   ar
     4    18    19   ar
     5    19    20   ar
     6    20    14    1
     7    14    15    2
     8    14    16    2
     9    14    12    1
    10    12    11    1
    11    11    10    1
    12    10     1    1
    13     1     2    1
    14     2     3    1
    15     3     4    1
    16     4     5    1
    17     5    25    1
    18    25    26    1
    19    26    27   ar
    20    27    28   ar
    21    28    29   ar
    22    29    30   ar
    23    30    31   ar
    24    31    32   ar
    25    32    33   ar
    26    33    34   ar
    27     5     6    1
    28     6     7    1
    29     7     8    1
    30     7     9    1
    31    20    21   ar
    32    21    22   ar
    33    22    17   ar
    34     8     1    1
    35     9     3    1
    36    34    26   ar
    37    33    28   ar
    38    12    13    1
@<TRIPOS>MOLECULE
*****
 34 38 0 0 0
SMALL
GASTEIGER

@<TRIPOS>ATOM
      1 N         140.4407  138.7826  160.4488 N.3     1  UNL1       -0.2673
      2 C         139.3415  139.7506  160.7724 C.3     1  UNL1        0.1035
      3 C         138.7832  139.8139  162.1632 C.3     1  UNL1        0.1470
      4 C         138.2249  139.8772  163.5540 C.3     1  UNL1        0.1039
      5 N         138.7658  138.9725  164.6212 N.3     1  UNL1       -0.2606
      6 C         139.8651  138.0045  164.2976 C.3     1  UNL1        0.1039
      7 C         140.4234  137.9412  162.9068 C.3     1  UNL1        0.1470
      8 C         140.9816  137.8779  161.5160 C.3     1  UNL1        0.1035
      9 O         139.3242  138.9092  163.2304 O.3     1  UNL1       -0.3530
     10 C         140.9990  138.7193  159.0580 C.3     1  UNL1        0.0913
     11 C         142.3923  138.2120  158.8315 C.3     1  UNL1        0.1087
     12 N         143.5490  139.1671  158.8406 N.3     1  UNL1       -0.1780
     13 H         144.3880  138.6152  158.6618 H       1  UNL1        0.1488
     14 S         143.8276  139.9960  160.0593 S.O2    1  UNL1        0.0603
     15 O         143.4108  141.2299  159.3153 O.2     1  UNL1       -0.1530
     16 O         144.2444  138.7621  160.8033 O.2     1  UNL1       -0.1530
     17 C         144.6635  142.4828  163.7154 C.ar    1  UNL1        0.0685
     18 C         144.2301  143.1448  162.4411 C.ar    1  UNL1        0.0116
     19 C         143.9515  142.3159  161.2223 C.ar    1  UNL1        0.0206
     20 C         144.1062  140.8249  161.2779 C.ar    1  UNL1        0.1220
     21 C         144.5396  140.1629  162.5523 C.ar    1  UNL1        0.0206
     22 C         144.8183  140.9918  163.7710 C.ar    1  UNL1        0.0116
     23 N         145.2207  144.1407  166.1528 N.1     1  UNL1       -0.1908
     24 C         144.9421  143.3117  164.9340 C.1     1  UNL1        0.1004
     25 C         138.2076  139.0358  166.0120 C.3     1  UNL1        0.1588
     26 C         138.9218  139.8212  167.0718 C.ar    1  UNL1        0.2221
     27 N         139.7085  141.0800  166.8566 N.ar    1  UNL1       -0.2109
     28 C         140.2476  141.5225  168.1847 C.ar    1  UNL1        0.1186
     29 C         141.0928  142.6953  168.5846 C.ar    1  UNL1        0.0223
     30 C         141.4845  142.8827  170.0204 C.ar    1  UNL1        0.0017
     31 C         141.0309  141.8973  171.0563 C.ar    1  UNL1        0.0032
     32 C         140.1856  140.7244  170.6564 C.ar    1  UNL1        0.0391
     33 C         139.7939  140.5370  169.2207 C.ar    1  UNL1        0.1644
     34 O         138.9745  139.4855  168.5328 O.2     1  UNL1       -0.4370
@<TRIPOS>BOND
     1    23    24    3
     2    24    17    1
     3    17    18   ar
     4    18    19   ar
     5    19    20   ar
     6    20    14    1
     7    14    15    2
     8    14    16    2
     9    14    12    1
    10    12    11    1
    11    11    10    1
    12    10     1    1
    13     1     2    1
    14     2     3    1
    15     3     4    1
    16     4     5    1
    17     5    25    1
    18    25    26    1
    19    26    27   ar
    20    27    28   ar
    21    28    29   ar
    22    29    30   ar
    23    30    31   ar
    24    31    32   ar
    25    32    33   ar
    26    33    34   ar
    27     5     6    1
    28     6     7    1
    29     7     8    1
    30     7     9    1
    31    20    21   ar
    32    21    22   ar
    33    22    17   ar
    34     8     1    1
    35     9     3    1
    36    34    26   ar
    37    33    28   ar
    38    12    13    1
@<TRIPOS>MOLECULE
*****
 34 38 0 0 0
SMALL
GASTEIGER

@<TRIPOS>ATOM
      1 N         144.2580  141.7229  159.7439 N.3     1  UNL1       -0.2673
      2 C         143.7462  140.3149  159.8167 C.3     1  UNL1        0.1035
      3 C         143.7480  139.5830  161.1260 C.3     1  UNL1        0.1470
      4 C         143.7498  138.8511  162.4354 C.3     1  UNL1        0.1039
      5 N         144.2634  139.5273  163.6719 N.3     1  UNL1       -0.2606
      6 C         144.7753  140.9355  163.5990 C.3     1  UNL1        0.1039
      7 C         144.7735  141.6673  162.2897 C.3     1  UNL1        0.1470
      8 C         144.7717  142.3992  160.9804 C.3     1  UNL1        0.1035
      9 O         144.2616  140.2593  162.3625 O.3     1  UNL1       -0.3530
     10 C         144.2562  142.4549  158.4345 C.3     1  UNL1        0.0913
     11 C         143.2130  143.4969  158.1592 C.3     1  UNL1        0.1087
     12 N         141.7684  143.2039  158.4375 N.3     1  UNL1       -0.1780
     13 H         141.2263  143.6923  157.7248 H       1  UNL1        0.1488
     14 S         141.1706  143.5707  159.7634 S.O2    1  UNL1        0.0603
     15 O         140.2734  142.3709  159.6907 O.2     1  UNL1       -0.1530
     16 O         142.0679  144.7705  159.8360 O.2     1  UNL1       -0.1530
     17 C         139.3771  144.6711  163.7411 C.ar    1  UNL1        0.0685
     18 C         140.7868  145.0690  163.4182 C.ar    1  UNL1        0.0116
     19 C         141.3847  144.7022  162.0923 C.ar    1  UNL1        0.0206
     20 C         140.5728  143.9375  161.0892 C.ar    1  UNL1        0.1220
     21 C         139.1630  143.5396  161.4122 C.ar    1  UNL1        0.0206
     22 C         138.5652  143.9064  162.7381 C.ar    1  UNL1        0.0116
     23 N         138.1814  145.4047  166.3929 N.1     1  UNL1       -0.1908
     24 C         138.7793  145.0379  165.0670 C.1     1  UNL1        0.1004
     25 C         144.2652  138.7955  164.9812 C.3     1  UNL1        0.1588
     26 C         143.2569  139.1429  166.0361 C.ar    1  UNL1        0.2221
     27 N         141.8816  139.6907  165.7946 N.ar    1  UNL1       -0.2109
     28 C         141.2215  139.8900  167.1268 C.ar    1  UNL1        0.1186
     29 C         139.8646  140.4032  167.5080 C.ar    1  UNL1        0.0223
     30 C         139.4751  140.4917  168.9538 C.ar    1  UNL1        0.0017
     31 C         140.4425  140.0671  170.0185 C.ar    1  UNL1        0.0032
     32 C         141.7995  139.5538  169.6374 C.ar    1  UNL1        0.0391
     33 C         142.1890  139.4653  168.1916 C.ar    1  UNL1        0.1644
     34 O         143.4469  139.0036  167.5174 O.2     1  UNL1       -0.4370
@<TRIPOS>BOND
     1    23    24    3
     2    24    17    1
     3    17    18   ar
     4    18    19   ar
     5    19    20   ar
     6    20    14    1
     7    14    15    2
     8    14    16    2
     9    14    12    1
    10    12    11    1
    11    11    10    1
    12    10     1    1
    13     1     2    1
    14     2     3    1
    15     3     4    1
    16     4     5    1
    17     5    25    1
    18    25    26    1
    19    26    27   ar
    20    27    28   ar
    21    28    29   ar
    22    29    30   ar
    23    30    31   ar
    24    31    32   ar
    25    32    33   ar
    26    33    34   ar
    27     5     6    1
    28     6     7    1
    29     7     8    1
    30     7     9    1
    31    20    21   ar
    32    21    22   ar
    33    22    17   ar
    34     8     1    1
    35     9     3    1
    36    34    26   ar
    37    33    28   ar
    38    12    13    1
@<TRIPOS>MOLECULE
*****
 34 38 0 0 0
SMALL
GASTEIGER

@<TRIPOS>ATOM
      1 N         141.6346  143.7404  160.4044 N.3     1  UNL1       -0.2673
      2 C         142.5267  142.5637  160.6676 C.3     1  UNL1        0.1035
      3 C         143.1304  142.3694  162.0269 C.3     1  UNL1        0.1470
      4 C         143.7342  142.1751  163.3862 C.3     1  UNL1        0.1039
      5 N         143.4458  143.1575  164.4824 N.3     1  UNL1       -0.2606
      6 C         142.5536  144.3343  164.2192 C.3     1  UNL1        0.1039
      7 C         141.9499  144.5286  162.8599 C.3     1  UNL1        0.1470
      8 C         141.3461  144.7229  161.5006 C.3     1  UNL1        0.1035
      9 O         142.8420  143.3519  163.1230 O.3     1  UNL1       -0.3530
     10 C         141.0308  143.9347  159.0451 C.3     1  UNL1        0.0913
     11 C         139.8699  143.0892  158.6122 C.3     1  UNL1        0.1087
     12 N         138.5909  143.1136  159.3956 N.3     1  UNL1       -0.1780
     13 H         138.3936  144.0917  159.6068 H       1  UNL1        0.1488
     14 S         138.4896  142.3622  160.6898 S.O2    1  UNL1        0.0603
     15 O         138.0153  143.6086  161.3764 O.2     1  UNL1       -0.1530
     16 O         138.9640  141.1157  160.0033 O.2     1  UNL1       -0.1530
     17 C         138.1859  140.1078  164.5726 C.ar    1  UNL1        0.0685
     18 C         138.0359  141.6002  164.5581 C.ar    1  UNL1        0.0116
     19 C         138.1372  142.3517  163.2638 C.ar    1  UNL1        0.0206
     20 C         138.3884  141.6107  161.9840 C.ar    1  UNL1        0.1220
     21 C         138.5383  140.1183  161.9985 C.ar    1  UNL1        0.0206
     22 C         138.4371  139.3669  163.2928 C.ar    1  UNL1        0.0116
     23 N         137.9834  138.6050  167.1611 N.1     1  UNL1       -0.1908
     24 C         138.0846  139.3564  165.8668 C.1     1  UNL1        0.1004
     25 C         144.0495  142.9633  165.8417 C.3     1  UNL1        0.1588
     26 C         143.1941  142.4983  166.9828 C.ar    1  UNL1        0.2221
     27 N         141.8569  141.8287  166.8664 N.ar    1  UNL1       -0.2109
     28 C         141.3620  141.5378  168.2523 C.ar    1  UNL1        0.1186
     29 C         140.1055  140.8903  168.7542 C.ar    1  UNL1        0.0223
     30 C         139.8804  140.7325  170.2288 C.ar    1  UNL1        0.0017
     31 C         140.9118  141.2222  171.2015 C.ar    1  UNL1        0.0032
     32 C         142.1684  141.8698  170.6997 C.ar    1  UNL1        0.0391
     33 C         142.3935  142.0276  169.2251 C.ar    1  UNL1        0.1644
     34 O         143.5258  142.6212  168.4405 O.2     1  UNL1       -0.4370
@<TRIPOS>BOND
     1    23    24    3
     2    24    17    1
     3    17    18   ar
     4    18    19   ar
     5    19    20   ar
     6    20    14    1
     7    14    15    2
     8    14    16    2
     9    14    12    1
    10    12    11    1
    11    11    10    1
    12    10     1    1
    13     1     2    1
    14     2     3    1
    15     3     4    1
    16     4     5    1
    17     5    25    1
    18    25    26    1
    19    26    27   ar
    20    27    28   ar
    21    28    29   ar
    22    29    30   ar
    23    30    31   ar
    24    31    32   ar
    25    32    33   ar
    26    33    34   ar
    27     5     6    1
    28     6     7    1
    29     7     8    1
    30     7     9    1
    31    20    21   ar
    32    21    22   ar
    33    22    17   ar
    34     8     1    1
    35     9     3    1
    36    34    26   ar
    37    33    28   ar
    38    12    13    1
@<TRIPOS>MOLECULE
*****
 34 38 0 0 0
SMALL
GASTEIGER

@<TRIPOS>ATOM
      1 N         141.1849  138.3244  159.5126 N.3     1  UNL1       -0.2673
      2 C         139.7026  138.4528  159.7024 C.3     1  UNL1        0.1035
      3 C         139.1095  138.3382  161.0753 C.3     1  UNL1        0.1470
      4 C         138.5164  138.2235  162.4484 C.3     1  UNL1        0.1039
      5 N         139.4057  137.9806  163.6316 N.3     1  UNL1       -0.2606
      6 C         140.8882  137.8523  163.4418 C.3     1  UNL1        0.1039
      7 C         141.4812  137.9669  162.0689 C.3     1  UNL1        0.1470
      8 C         142.0743  138.0815  160.6959 C.3     1  UNL1        0.1035
      9 O         139.9988  138.0952  162.2586 O.3     1  UNL1       -0.3530
     10 C         141.7781  138.4391  158.1396 C.3     1  UNL1        0.0913
     11 C         142.5592  137.2961  157.5623 C.3     1  UNL1        0.1087
     12 N         141.9540  136.4401  156.4893 N.3     1  UNL1       -0.1780
     13 H         140.9760  136.2989  156.7420 H       1  UNL1        0.1488
     14 S         142.5265  135.0843  156.1995 S.O2    1  UNL1        0.0603
     15 O         141.4617  134.8551  155.1683 O.2     1  UNL1       -0.1530
     16 O         143.5914  135.3135  157.2308 O.2     1  UNL1       -0.1530
     17 C         144.2440  131.0169  155.3301 C.ar    1  UNL1        0.0685
     18 C         143.1882  131.5924  154.4335 C.ar    1  UNL1        0.0116
     19 C         142.6156  132.9482  154.7233 C.ar    1  UNL1        0.0206
     20 C         143.0990  133.7285  155.9097 C.ar    1  UNL1        0.1220
     21 C         144.1549  133.1529  156.8063 C.ar    1  UNL1        0.0206
     22 C         144.7274  131.7971  156.5165 C.ar    1  UNL1        0.0116
     23 N         145.3890  128.3052  154.7504 N.1     1  UNL1       -0.1908
     24 C         144.8165  129.6611  155.0403 C.1     1  UNL1        0.1004
     25 C         138.8127  137.8660  165.0046 C.3     1  UNL1        0.1588
     26 C         139.1304  138.8965  166.0473 C.ar    1  UNL1        0.2221
     27 N         139.8701  140.1815  165.8201 N.ar    1  UNL1       -0.2109
     28 C         139.9612  140.9022  167.1326 C.ar    1  UNL1        0.1186
     29 C         140.5781  142.2144  167.5165 C.ar    1  UNL1        0.0223
     30 C         140.5115  142.6870  168.9385 C.ar    1  UNL1        0.0017
     31 C         139.8281  141.8474  169.9767 C.ar    1  UNL1        0.0032
     32 C         139.2111  140.5351  169.5929 C.ar    1  UNL1        0.0391
     33 C         139.2777  140.0625  168.1708 C.ar    1  UNL1        0.1644
     34 O         138.7643  138.8229  167.5000 O.2     1  UNL1       -0.4370
@<TRIPOS>BOND
     1    23    24    3
     2    24    17    1
     3    17    18   ar
     4    18    19   ar
     5    19    20   ar
     6    20    14    1
     7    14    15    2
     8    14    16    2
     9    14    12    1
    10    12    11    1
    11    11    10    1
    12    10     1    1
    13     1     2    1
    14     2     3    1
    15     3     4    1
    16     4     5    1
    17     5    25    1
    18    25    26    1
    19    26    27   ar
    20    27    28   ar
    21    28    29   ar
    22    29    30   ar
    23    30    31   ar
    24    31    32   ar
    25    32    33   ar
    26    33    34   ar
    27     5     6    1
    28     6     7    1
    29     7     8    1
    30     7     9    1
    31    20    21   ar
    32    21    22   ar
    33    22    17   ar
    34     8     1    1
    35     9     3    1
    36    34    26   ar
    37    33    28   ar
    38    12    13    1
@<TRIPOS>MOLECULE
*****
 34 38 0 0 0
SMALL
GASTEIGER

@<TRIPOS>ATOM
      1 N         143.0712  141.0448  160.3425 N.3     1  UNL1       -0.2673
      2 C         144.2429  140.5228  161.1200 C.3     1  UNL1        0.1035
      3 C         144.4739  140.9841  162.5285 C.3     1  UNL1        0.1470
      4 C         144.7049  141.4454  163.9370 C.3     1  UNL1        0.1039
      5 N         143.7641  142.4287  164.5679 N.3     1  UNL1       -0.2606
      6 C         142.5924  142.9507  163.7903 C.3     1  UNL1        0.1039
      7 C         142.3614  142.4894  162.3819 C.3     1  UNL1        0.1470
      8 C         142.1305  142.0281  160.9734 C.3     1  UNL1        0.1035
      9 O         143.5331  141.9674  163.1594 O.3     1  UNL1       -0.3530
     10 C         142.8402  140.5835  158.9339 C.3     1  UNL1        0.0913
     11 C         141.8502  139.4917  158.6552 C.3     1  UNL1        0.1087
     12 N         141.8233  138.2652  159.5184 N.3     1  UNL1       -0.1780
     13 H         141.4065  137.5208  158.9595 H       1  UNL1        0.1488
     14 S         141.0914  138.2854  160.8275 S.O2    1  UNL1        0.0603
     15 O         142.2535  137.6047  161.4878 O.2     1  UNL1       -0.1530
     16 O         139.9292  138.9661  160.1673 O.2     1  UNL1       -0.1530
     17 C         138.8955  138.3460  164.7549 C.ar    1  UNL1        0.0685
     18 C         138.4354  139.2185  163.6249 C.ar    1  UNL1        0.0116
     19 C         139.1674  139.1983  162.3157 C.ar    1  UNL1        0.0206
     20 C         140.3594  138.3056  162.1366 C.ar    1  UNL1        0.1220
     21 C         140.8196  137.4331  163.2668 C.ar    1  UNL1        0.0206
     22 C         140.0876  137.4533  164.5759 C.ar    1  UNL1        0.0116
     23 N         137.4316  138.3864  167.3732 N.1     1  UNL1       -0.1908
     24 C         138.1636  138.3662  166.0640 C.1     1  UNL1        0.1004
     25 C         143.9951  142.8900  165.9764 C.3     1  UNL1        0.1588
     26 C         143.1560  142.3416  167.0924 C.ar    1  UNL1        0.2221
     27 N         143.3919  142.5530  168.5586 N.ar    1  UNL1       -0.2109
     28 C         142.3155  141.8276  169.3105 C.ar    1  UNL1        0.1186
     29 C         142.0393  141.6825  170.7776 C.ar    1  UNL1        0.0223
     30 C         140.8623  140.8777  171.2433 C.ar    1  UNL1        0.0017
     31 C         139.9613  140.2180  170.2418 C.ar    1  UNL1        0.0032
     32 C         140.2374  140.3631  168.7745 C.ar    1  UNL1        0.0391
     33 C         141.4145  141.1679  168.3089 C.ar    1  UNL1        0.1644
     34 O         141.9340  141.4856  166.9381 O.2     1  UNL1       -0.4370
@<TRIPOS>BOND
     1    23    24    3
     2    24    17    1
     3    17    18   ar
     4    18    19   ar
     5    19    20   ar
     6    20    14    1
     7    14    15    2
     8    14    16    2
     9    14    12    1
    10    12    11    1
    11    11    10    1
    12    10     1    1
    13     1     2    1
    14     2     3    1
    15     3     4    1
    16     4     5    1
    17     5    25    1
    18    25    26    1
    19    26    27   ar
    20    27    28   ar
    21    28    29   ar
    22    29    30   ar
    23    30    31   ar
    24    31    32   ar
    25    32    33   ar
    26    33    34   ar
    27     5     6    1
    28     6     7    1
    29     7     8    1
    30     7     9    1
    31    20    21   ar
    32    21    22   ar
    33    22    17   ar
    34     8     1    1
    35     9     3    1
    36    34    26   ar
    37    33    28   ar
    38    12    13    1
@<TRIPOS>MOLECULE
*****
 34 38 0 0 0
SMALL
GASTEIGER

@<TRIPOS>ATOM
      1 N         139.3453  137.5676  164.1573 N.3     1  UNL1       -0.2673
      2 C         140.8417  137.4909  164.0892 C.3     1  UNL1        0.1035
      3 C         141.5486  137.7639  162.7948 C.3     1  UNL1        0.1470
      4 C         142.2556  138.0369  161.5002 C.3     1  UNL1        0.1039
      5 N         141.4660  138.3867  160.2738 N.3     1  UNL1       -0.2606
      6 C         139.9695  138.4635  160.3418 C.3     1  UNL1        0.1039
      7 C         139.2626  138.1905  161.6363 C.3     1  UNL1        0.1470
      8 C         138.5557  137.9174  162.9308 C.3     1  UNL1        0.1035
      9 O         140.7590  138.1137  161.5683 O.3     1  UNL1       -0.3530
     10 C         138.6383  137.2946  165.4518 C.3     1  UNL1        0.0913
     11 C         138.2001  138.4350  166.3221 C.3     1  UNL1        0.1087
     12 N         139.1514  139.5538  166.6279 N.3     1  UNL1       -0.1780
     13 H         138.9190  139.8907  167.5622 H       1  UNL1        0.1488
     14 S         139.2057  140.7574  165.7345 S.O2    1  UNL1        0.0603
     15 O         137.8195  140.4575  165.2462 O.2     1  UNL1       -0.1530
     16 O         140.5919  141.0573  166.2228 O.2     1  UNL1       -0.1530
     17 C         139.3686  144.3685  163.0543 C.ar    1  UNL1        0.0685
     18 C         140.6011  143.5427  163.2758 C.ar    1  UNL1        0.0116
     19 C         140.5468  142.3390  164.1693 C.ar    1  UNL1        0.0206
     20 C         139.2600  141.9611  164.8411 C.ar    1  UNL1        0.1220
     21 C         138.0275  142.7869  164.6195 C.ar    1  UNL1        0.0206
     22 C         138.0819  143.9906  163.7261 C.ar    1  UNL1        0.0116
     23 N         139.4773  146.7758  161.2674 N.1     1  UNL1       -0.1908
     24 C         139.4230  145.5721  162.1609 C.1     1  UNL1        0.1004
     25 C         142.1729  138.6597  158.9793 C.3     1  UNL1        0.1588
     26 C         142.1407  137.6419  157.8779 C.ar    1  UNL1        0.2221
     27 N         143.2371  136.6766  157.5373 N.ar    1  UNL1       -0.2109
     28 C         142.7805  135.8487  156.3727 C.ar    1  UNL1        0.1186
     29 C         143.4419  134.7404  155.6084 C.ar    1  UNL1        0.0223
     30 C         142.7248  134.0857  154.4651 C.ar    1  UNL1        0.0017
     31 C         141.3462  134.5393  154.0861 C.ar    1  UNL1        0.0032
     32 C         140.6847  135.6477  154.8504 C.ar    1  UNL1        0.0391
     33 C         141.4019  136.3023  155.9937 C.ar    1  UNL1        0.1644
     34 O         141.0065  137.4106  156.9240 O.2     1  UNL1       -0.4370
@<TRIPOS>BOND
     1    23    24    3
     2    24    17    1
     3    17    18   ar
     4    18    19   ar
     5    19    20   ar
     6    20    14    1
     7    14    15    2
     8    14    16    2
     9    14    12    1
    10    12    11    1
    11    11    10    1
    12    10     1    1
    13     1     2    1
    14     2     3    1
    15     3     4    1
    16     4     5    1
    17     5    25    1
    18    25    26    1
    19    26    27   ar
    20    27    28   ar
    21    28    29   ar
    22    29    30   ar
    23    30    31   ar
    24    31    32   ar
    25    32    33   ar
    26    33    34   ar
    27     5     6    1
    28     6     7    1
    29     7     8    1
    30     7     9    1
    31    20    21   ar
    32    21    22   ar
    33    22    17   ar
    34     8     1    1
    35     9     3    1
    36    34    26   ar
    37    33    28   ar
    38    12    13    1
@<TRIPOS>MOLECULE
*****
 34 38 0 0 0
SMALL
GASTEIGER

@<TRIPOS>ATOM
      1 N         139.4092  137.5243  164.2688 N.3     1  UNL1       -0.2673
      2 C         140.9061  137.4326  164.2400 C.3     1  UNL1        0.1035
      3 C         141.6501  137.7102  162.9675 C.3     1  UNL1        0.1470
      4 C         142.3942  137.9879  161.6949 C.3     1  UNL1        0.1039
      5 N         141.6413  138.3571  160.4512 N.3     1  UNL1       -0.2606
      6 C         140.1443  138.4488  160.4801 C.3     1  UNL1        0.1039
      7 C         139.4003  138.1712  161.7526 C.3     1  UNL1        0.1470
      8 C         138.6563  137.8936  163.0251 C.3     1  UNL1        0.1035
      9 O         140.8972  138.0795  161.7238 O.3     1  UNL1       -0.3530
     10 C         138.6652  137.2466  165.5414 C.3     1  UNL1        0.0913
     11 C         138.0171  138.3720  166.2921 C.3     1  UNL1        0.1087
     12 N         138.8595  139.3319  167.0790 N.3     1  UNL1       -0.1780
     13 H         138.2210  139.8788  167.6566 H       1  UNL1        0.1488
     14 S         139.7452  140.3107  166.3666 S.O2    1  UNL1        0.0603
     15 O         140.9238  139.8150  167.1509 O.2     1  UNL1       -0.1530
     16 O         138.5666  140.8063  165.5823 O.2     1  UNL1       -0.1530
     17 C         142.4023  143.2470  164.2294 C.ar    1  UNL1        0.0685
     18 C         142.9283  141.8925  164.6015 C.ar    1  UNL1        0.0116
     19 C         142.0426  140.9136  165.3139 C.ar    1  UNL1        0.0206
     20 C         140.6309  141.2894  165.6542 C.ar    1  UNL1        0.1220
     21 C         140.1049  142.6441  165.2822 C.ar    1  UNL1        0.0206
     22 C         140.9906  143.6228  164.5698 C.ar    1  UNL1        0.0116
     23 N         144.1737  145.2046  162.8046 N.1     1  UNL1       -0.1908
     24 C         143.2880  144.2258  163.5171 C.1     1  UNL1        0.1004
     25 C         142.3852  138.6348  159.1787 C.3     1  UNL1        0.1588
     26 C         142.2829  137.6798  158.0264 C.ar    1  UNL1        0.2221
     27 N         141.1069  137.5301  157.1073 N.ar    1  UNL1       -0.2109
     28 C         141.4356  136.4647  156.1038 C.ar    1  UNL1        0.1186
     29 C         140.6574  135.8921  154.9565 C.ar    1  UNL1        0.0223
     30 C         141.2583  134.8108  154.1080 C.ar    1  UNL1        0.0017
     31 C         142.6374  134.3022  154.4069 C.ar    1  UNL1        0.0032
     32 C         143.4157  134.8749  155.5543 C.ar    1  UNL1        0.0391
     33 C         142.8148  135.9561  156.4027 C.ar    1  UNL1        0.1644
     34 O         143.3384  136.7071  157.5909 O.2     1  UNL1       -0.4370
@<TRIPOS>BOND
     1    23    24    3
     2    24    17    1
     3    17    18   ar
     4    18    19   ar
     5    19    20   ar
     6    20    14    1
     7    14    15    2
     8    14    16    2
     9    14    12    1
    10    12    11    1
    11    11    10    1
    12    10     1    1
    13     1     2    1
    14     2     3    1
    15     3     4    1
    16     4     5    1
    17     5    25    1
    18    25    26    1
    19    26    27   ar
    20    27    28   ar
    21    28    29   ar
    22    29    30   ar
    23    30    31   ar
    24    31    32   ar
    25    32    33   ar
    26    33    34   ar
    27     5     6    1
    28     6     7    1
    29     7     8    1
    30     7     9    1
    31    20    21   ar
    32    21    22   ar
    33    22    17   ar
    34     8     1    1
    35     9     3    1
    36    34    26   ar
    37    33    28   ar
    38    12    13    1
