@<TRIPOS>MOLECULE
*****
 48 55 0 0 0
SMALL
GASTEIGER

@<TRIPOS>ATOM
      1 C         139.6946  140.2042  157.1036 C.ar    1  UNL1        0.0177
      2 C         140.2205  141.1503  158.1421 C.ar    1  UNL1        0.0012
      3 C         141.4493  140.7958  158.9259 C.ar    1  UNL1       -0.0029
      4 C         142.1522  139.4953  158.6712 C.ar    1  UNL1       -0.0061
      5 C         141.6262  138.5493  157.6328 C.ar    1  UNL1       -0.0029
      6 C         140.3974  138.9038  156.8490 C.ar    1  UNL1        0.0012
      7 C         133.2929  140.5850  155.8296 C.ar    1  UNL1        0.2216
      8 N         133.4217  141.2808  154.5071 N.ar    1  UNL1       -0.2120
      9 C         134.7793  141.6221  153.9683 C.ar    1  UNL1        0.1048
     10 C         136.0081  141.2676  154.7521 C.ar    1  UNL1        0.0551
     11 C         137.3658  141.6090  154.2133 C.ar    1  UNL1        0.0061
     12 C         138.5946  141.2545  154.9971 C.ar    1  UNL1        0.0179
     13 C         138.4657  140.5587  156.3198 C.ar    1  UNL1        0.0829
     14 N         137.1081  140.2174  156.8585 N.ar    1  UNL1       -0.2264
     15 C         135.8793  140.5719  156.0747 C.ar    1  UNL1        0.1666
     16 N         134.5217  140.2305  156.6135 N.ar    1  UNL1       -0.1945
     17 C         127.8622  139.2197  157.9848 C.3     1  UNL1        0.0897
     18 N         129.2199  139.5610  157.4460 N.3     1  UNL1       -0.2686
     19 C         130.4418  138.9134  158.0269 C.3     1  UNL1        0.0939
     20 C         131.7995  139.2547  157.4881 C.3     1  UNL1        0.1109
     21 N         131.9352  140.2436  156.3685 N.pl3   1  UNL1       -0.2753
     22 C         130.7132  140.8912  155.7876 C.3     1  UNL1        0.1109
     23 C         129.3556  140.5499  156.3263 C.3     1  UNL1        0.0939
     24 C         139.9522  141.5959  154.4584 C.ar    1  UNL1        0.0015
     25 C         140.6667  140.6309  153.5592 C.ar    1  UNL1        0.0000
     26 C         142.0243  140.9722  153.0205 C.ar    1  UNL1        0.0000
     27 C         142.6676  142.2785  153.3809 C.ar    1  UNL1        0.0000
     28 C         141.9532  143.2434  154.2800 C.ar    1  UNL1        0.0000
     29 C         140.5955  142.9021  154.8188 C.ar    1  UNL1        0.0000
     30 C         143.3810  139.1408  159.4551 C.3     1  UNL1        0.0991
     31 N         143.3290  139.1006  160.9537 N.3     1  UNL1       -0.2689
     32 C         142.4682  138.0867  161.6473 C.3     1  UNL1        0.0728
     33 C         142.4162  138.0465  163.1459 C.3     1  UNL1        0.0249
     34 C         143.2250  139.0201  163.9508 C.3     1  UNL1        0.0613
     35 C         144.0858  140.0340  163.2571 C.3     1  UNL1        0.0249
     36 C         144.1378  140.0742  161.7586 C.3     1  UNL1        0.0728
     37 C         143.1730  138.9799  165.4493 C.ar    1  UNL1        0.1397
     38 N         143.8540  137.9732  166.3285 N.ar    1  UNL1       -0.1335
     39 N         143.5328  138.3105  167.7544 N.ar    1  UNL1       -0.1261
     40 C         142.6533  139.5257  167.7564 C.ar    1  UNL1        0.1990
     41 N         142.4310  139.9394  166.3318 N.ar    1  UNL1       -0.3221
     42 H         141.8926  140.7060  166.0292 H       1  UNL1        0.1687
     43 C         142.0943  140.2074  168.9700 C.ar    1  UNL1        0.1988
     44 N         142.7456  141.4510  169.4984 N.ar    1  UNL1       -0.2224
     45 C         142.1866  142.1328  170.7120 C.ar    1  UNL1        0.1023
     46 C         140.9763  141.5709  171.3972 C.ar    1  UNL1        0.0414
     47 C         140.3251  140.3271  170.8687 C.ar    1  UNL1        0.1023
     48 N         140.8841  139.6455  169.6552 N.ar    1  UNL1       -0.2224
@<TRIPOS>BOND
     1    17    18    1
     2    18    19    1
     3    19    20    1
     4    20    21    1
     5    21     7    1
     6     7     8   ar
     7     8     9   ar
     8     9    10   ar
     9    10    11   ar
    10    11    12   ar
    11    12    24    1
    12    24    25   ar
    13    25    26   ar
    14    26    27   ar
    15    27    28   ar
    16    28    29   ar
    17    12    13   ar
    18    13     1    1
    19     1     2   ar
    20     2     3   ar
    21     3     4   ar
    22     4    30    1
    23    30    31    1
    24    31    32    1
    25    32    33    1
    26    33    34    1
    27    34    37    1
    28    37    38   ar
    29    38    39   ar
    30    39    40   ar
    31    40    43    1
    32    43    44   ar
    33    44    45   ar
    34    45    46   ar
    35    46    47   ar
    36    47    48   ar
    37    40    41   ar
    38    34    35    1
    39    35    36    1
    40     4     5   ar
    41     5     6   ar
    42    13    14   ar
    43    14    15   ar
    44    15    16   ar
    45    21    22    1
    46    22    23    1
    47    23    18    1
    48    16     7   ar
    49    15    10   ar
    50    29    24   ar
    51     6     1   ar
    52    36    31    1
    53    41    37   ar
    54    48    43   ar
    55    41    42    1
@<TRIPOS>MOLECULE
*****
 48 55 0 0 0
SMALL
GASTEIGER

@<TRIPOS>ATOM
      1 C         140.3064  139.9988  158.9607 C.ar    1  UNL1        0.0177
      2 C         141.5561  140.3776  158.2226 C.ar    1  UNL1        0.0012
      3 C         142.0665  139.5047  157.1147 C.ar    1  UNL1       -0.0029
      4 C         141.3272  138.2530  156.7448 C.ar    1  UNL1       -0.0061
      5 C         140.0775  137.8742  157.4829 C.ar    1  UNL1       -0.0029
      6 C         139.5671  138.7472  158.5909 C.ar    1  UNL1        0.0012
      7 C         139.4926  142.0011  165.1314 C.ar    1  UNL1        0.2216
      8 N         138.6235  143.1822  164.8159 N.ar    1  UNL1       -0.2120
      9 C         138.2648  143.4904  163.3924 C.ar    1  UNL1        0.1048
     10 C         138.7752  142.6175  162.2845 C.ar    1  UNL1        0.0551
     11 C         138.4164  142.9258  160.8610 C.ar    1  UNL1        0.0061
     12 C         138.9268  142.0529  159.7530 C.ar    1  UNL1        0.0179
     13 C         139.7960  140.8717  160.0686 C.ar    1  UNL1        0.0829
     14 N         140.1547  140.5635  161.4921 N.ar    1  UNL1       -0.2264
     15 C         139.6443  141.4364  162.6000 C.ar    1  UNL1        0.1666
     16 N         140.0030  141.1282  164.0235 N.ar    1  UNL1       -0.1945
     17 C         140.9275  140.7683  170.8254 C.3     1  UNL1        0.0897
     18 N         140.5688  141.0765  169.4020 N.3     1  UNL1       -0.2686
     19 C         139.9668  140.0123  168.5329 C.3     1  UNL1        0.0939
     20 C         139.6081  140.3206  167.1094 C.3     1  UNL1        0.1109
     21 N         139.8513  141.6929  166.5550 N.pl3   1  UNL1       -0.2753
     22 C         140.4533  142.7571  167.4240 C.3     1  UNL1        0.1109
     23 C         140.8120  142.4489  168.8474 C.3     1  UNL1        0.0939
     24 C         138.5681  142.3610  158.3296 C.ar    1  UNL1        0.0015
     25 C         139.3407  143.3978  157.5690 C.ar    1  UNL1        0.0000
     26 C         138.9820  143.7060  156.1455 C.ar    1  UNL1        0.0000
     27 C         137.8508  142.9775  155.4826 C.ar    1  UNL1        0.0000
     28 C         137.0782  141.9408  156.2430 C.ar    1  UNL1        0.0000
     29 C         137.4369  141.6326  157.6666 C.ar    1  UNL1        0.0000
     30 C         141.8376  137.3801  155.6369 C.3     1  UNL1        0.0991
     31 N         142.0843  135.9213  155.8845 N.3     1  UNL1       -0.2689
     32 C         141.3203  134.8893  155.1091 C.3     1  UNL1        0.0728
     33 C         141.5670  133.4305  155.3567 C.3     1  UNL1        0.0249
     34 C         142.5777  133.0038  156.3796 C.3     1  UNL1        0.0613
     35 C         143.3417  134.0359  157.1550 C.3     1  UNL1        0.0249
     36 C         143.0950  135.4946  156.9074 C.3     1  UNL1        0.0728
     37 C         142.8244  131.5452  156.6272 C.ar    1  UNL1        0.1397
     38 N         142.6239  130.4365  155.6369 N.ar    1  UNL1       -0.1335
     39 N         142.9905  129.1451  156.3062 N.ar    1  UNL1       -0.1261
     40 C         143.4176  129.4558  157.7102 C.ar    1  UNL1        0.1990
     41 N         143.3150  130.9390  157.9086 N.ar    1  UNL1       -0.3221
     42 H         143.5316  131.4287  158.7347 H       1  UNL1        0.1687
     43 C         143.8683  128.4582  158.7358 C.ar    1  UNL1        0.1988
     44 N         145.3326  128.2381  158.9753 N.ar    1  UNL1       -0.2224
     45 C         145.7833  127.2406  160.0008 C.ar    1  UNL1        0.1023
     46 C         144.7697  126.4630  160.7869 C.ar    1  UNL1        0.0414
     47 C         143.3052  126.6831  160.5474 C.ar    1  UNL1        0.1023
     48 N         142.8547  127.6806  159.5219 N.ar    1  UNL1       -0.2224
@<TRIPOS>BOND
     1    17    18    1
     2    18    19    1
     3    19    20    1
     4    20    21    1
     5    21     7    1
     6     7     8   ar
     7     8     9   ar
     8     9    10   ar
     9    10    11   ar
    10    11    12   ar
    11    12    24    1
    12    24    25   ar
    13    25    26   ar
    14    26    27   ar
    15    27    28   ar
    16    28    29   ar
    17    12    13   ar
    18    13     1    1
    19     1     2   ar
    20     2     3   ar
    21     3     4   ar
    22     4    30    1
    23    30    31    1
    24    31    32    1
    25    32    33    1
    26    33    34    1
    27    34    37    1
    28    37    38   ar
    29    38    39   ar
    30    39    40   ar
    31    40    43    1
    32    43    44   ar
    33    44    45   ar
    34    45    46   ar
    35    46    47   ar
    36    47    48   ar
    37    40    41   ar
    38    34    35    1
    39    35    36    1
    40     4     5   ar
    41     5     6   ar
    42    13    14   ar
    43    14    15   ar
    44    15    16   ar
    45    21    22    1
    46    22    23    1
    47    23    18    1
    48    16     7   ar
    49    15    10   ar
    50    29    24   ar
    51     6     1   ar
    52    36    31    1
    53    41    37   ar
    54    48    43   ar
    55    41    42    1
@<TRIPOS>MOLECULE
*****
 48 55 0 0 0
SMALL
GASTEIGER

@<TRIPOS>ATOM
      1 C         142.0460  140.8769  163.9953 C.ar    1  UNL1        0.0177
      2 C         142.9562  141.9921  163.5733 C.ar    1  UNL1        0.0012
      3 C         143.2658  142.1983  162.1202 C.ar    1  UNL1       -0.0029
      4 C         142.6652  141.2893  161.0890 C.ar    1  UNL1       -0.0061
      5 C         141.7551  140.1742  161.5110 C.ar    1  UNL1       -0.0029
      6 C         141.4455  139.9680  162.9642 C.ar    1  UNL1        0.0012
      7 C         142.9132  138.5483  170.0431 C.ar    1  UNL1        0.2216
      8 N         141.7056  139.1970  170.6520 N.ar    1  UNL1       -0.2120
      9 C         140.8076  140.0519  169.8078 C.ar    1  UNL1        0.1048
     10 C         141.1172  140.2581  168.3547 C.ar    1  UNL1        0.0551
     11 C         140.2191  141.1131  167.5105 C.ar    1  UNL1        0.0061
     12 C         140.5287  141.3193  166.0574 C.ar    1  UNL1        0.0179
     13 C         141.7364  140.6706  165.4484 C.ar    1  UNL1        0.0829
     14 N         142.6344  139.8157  166.2926 N.ar    1  UNL1       -0.2264
     15 C         142.3248  139.6095  167.7457 C.ar    1  UNL1        0.1666
     16 N         143.2228  138.7545  168.5899 N.ar    1  UNL1       -0.1945
     17 C         146.5055  135.1286  173.4197 C.3     1  UNL1        0.0897
     18 N         145.6074  135.9835  172.5756 N.3     1  UNL1       -0.2686
     19 C         144.6711  135.3453  171.5927 C.3     1  UNL1        0.0939
     20 C         143.7730  136.2003  170.7485 C.3     1  UNL1        0.1109
     21 N         143.8113  137.6933  170.8872 N.pl3   1  UNL1       -0.2753
     22 C         144.7476  138.3315  171.8701 C.3     1  UNL1        0.1109
     23 C         145.6457  137.4766  172.7143 C.3     1  UNL1        0.0939
     24 C         139.6307  142.1743  165.2132 C.ar    1  UNL1        0.0015
     25 C         138.4788  141.5549  164.4786 C.ar    1  UNL1        0.0000
     26 C         137.5808  142.4098  163.6345 C.ar    1  UNL1        0.0000
     27 C         137.8347  143.8841  163.5248 C.ar    1  UNL1        0.0000
     28 C         138.9865  144.5035  164.2593 C.ar    1  UNL1        0.0000
     29 C         139.8846  143.6485  165.1036 C.ar    1  UNL1        0.0000
     30 C         142.9748  141.4956  159.6359 C.3     1  UNL1        0.0991
     31 N         142.2020  142.5056  158.8404 N.3     1  UNL1       -0.2689
     32 C         142.8978  143.7103  158.2797 C.3     1  UNL1        0.0728
     33 C         142.1249  144.7203  157.4842 C.3     1  UNL1        0.0249
     34 C         140.6563  144.5254  157.2494 C.3     1  UNL1        0.0613
     35 C         139.9605  143.3206  157.8101 C.3     1  UNL1        0.0249
     36 C         140.7333  142.3107  158.6056 C.3     1  UNL1        0.0728
     37 C         139.8834  145.5353  156.4540 C.ar    1  UNL1        0.1397
     38 N         138.6287  145.2715  155.6755 N.ar    1  UNL1       -0.1335
     39 N         138.1994  146.5595  155.0377 N.ar    1  UNL1       -0.1261
     40 C         139.1889  147.6194  155.4221 C.ar    1  UNL1        0.1990
     41 N         140.2296  146.9864  156.2974 N.ar    1  UNL1       -0.3221
     42 H         141.0040  147.4431  156.6986 H       1  UNL1        0.1687
     43 C         139.1452  149.0594  155.0045 C.ar    1  UNL1        0.1988
     44 N         139.7671  149.4832  153.7069 N.ar    1  UNL1       -0.2224
     45 C         139.7234  150.9233  153.2893 C.ar    1  UNL1        0.1023
     46 C         139.0578  151.9395  154.1692 C.ar    1  UNL1        0.0414
     47 C         138.4359  151.5156  155.4669 C.ar    1  UNL1        0.1023
     48 N         138.4796  150.0757  155.8844 N.ar    1  UNL1       -0.2224
@<TRIPOS>BOND
     1    17    18    1
     2    18    19    1
     3    19    20    1
     4    20    21    1
     5    21     7    1
     6     7     8   ar
     7     8     9   ar
     8     9    10   ar
     9    10    11   ar
    10    11    12   ar
    11    12    24    1
    12    24    25   ar
    13    25    26   ar
    14    26    27   ar
    15    27    28   ar
    16    28    29   ar
    17    12    13   ar
    18    13     1    1
    19     1     2   ar
    20     2     3   ar
    21     3     4   ar
    22     4    30    1
    23    30    31    1
    24    31    32    1
    25    32    33    1
    26    33    34    1
    27    34    37    1
    28    37    38   ar
    29    38    39   ar
    30    39    40   ar
    31    40    43    1
    32    43    44   ar
    33    44    45   ar
    34    45    46   ar
    35    46    47   ar
    36    47    48   ar
    37    40    41   ar
    38    34    35    1
    39    35    36    1
    40     4     5   ar
    41     5     6   ar
    42    13    14   ar
    43    14    15   ar
    44    15    16   ar
    45    21    22    1
    46    22    23    1
    47    23    18    1
    48    16     7   ar
    49    15    10   ar
    50    29    24   ar
    51     6     1   ar
    52    36    31    1
    53    41    37   ar
    54    48    43   ar
    55    41    42    1
@<TRIPOS>MOLECULE
*****
 48 55 0 0 0
SMALL
GASTEIGER

@<TRIPOS>ATOM
      1 C         141.1417  140.8036  158.9053 C.ar    1  UNL1        0.0177
      2 C         142.5371  140.6477  158.3774 C.ar    1  UNL1        0.0012
      3 C         142.8045  139.7241  157.2261 C.ar    1  UNL1       -0.0029
      4 C         141.6766  138.9565  156.6027 C.ar    1  UNL1       -0.0061
      5 C         140.2813  139.1124  157.1306 C.ar    1  UNL1       -0.0029
      6 C         140.0138  140.0360  158.2820 C.ar    1  UNL1        0.0012
      7 C         140.2181  142.4910  165.1543 C.ar    1  UNL1        0.2216
      8 N         140.0114  143.9562  164.9081 N.ar    1  UNL1       -0.2120
      9 C         140.0721  144.4977  163.5107 C.ar    1  UNL1        0.1048
     10 C         140.3395  143.5742  162.3593 C.ar    1  UNL1        0.0551
     11 C         140.4001  144.1159  160.9618 C.ar    1  UNL1        0.0061
     12 C         140.6676  143.1923  159.8105 C.ar    1  UNL1        0.0179
     13 C         140.8743  141.7271  160.0567 C.ar    1  UNL1        0.0829
     14 N         140.8136  141.1855  161.4541 N.ar    1  UNL1       -0.2264
     15 C         140.5462  142.1091  162.6055 C.ar    1  UNL1        0.1666
     16 N         140.4855  141.5675  164.0029 N.ar    1  UNL1       -0.1945
     17 C         139.9755  140.3245  170.7443 C.3     1  UNL1        0.0897
     18 N         140.0361  140.8661  169.3468 N.3     1  UNL1       -0.2686
     19 C         139.6126  140.0088  168.1911 C.3     1  UNL1        0.0939
     20 C         139.6733  140.5504  166.7936 C.3     1  UNL1        0.1109
     21 N         140.1574  141.9494  166.5518 N.pl3   1  UNL1       -0.2753
     22 C         140.5809  142.8067  167.7075 C.3     1  UNL1        0.1109
     23 C         140.5203  142.2651  169.1049 C.3     1  UNL1        0.0939
     24 C         140.7282  143.7339  158.4130 C.ar    1  UNL1        0.0015
     25 C         142.0051  144.3242  157.8922 C.ar    1  UNL1        0.0000
     26 C         142.0658  144.8658  156.4947 C.ar    1  UNL1        0.0000
     27 C         140.8496  144.8171  155.6180 C.ar    1  UNL1        0.0000
     28 C         139.5728  144.2268  156.1388 C.ar    1  UNL1        0.0000
     29 C         139.5121  143.6852  157.5363 C.ar    1  UNL1        0.0000
     30 C         141.9440  138.0330  155.4513 C.3     1  UNL1        0.0991
     31 N         142.1475  136.5673  155.6972 N.3     1  UNL1       -0.2689
     32 C         141.5009  135.5585  154.7949 C.3     1  UNL1        0.0728
     33 C         141.7044  134.0928  155.0407 C.3     1  UNL1        0.0249
     34 C         142.5546  133.6360  156.1889 C.3     1  UNL1        0.0613
     35 C         143.2013  134.6448  157.0913 C.3     1  UNL1        0.0249
     36 C         142.9977  136.1104  156.8454 C.3     1  UNL1        0.0728
     37 C         142.7582  132.1703  156.4348 C.ar    1  UNL1        0.1397
     38 N         142.4864  131.0661  155.4566 N.ar    1  UNL1       -0.1335
     39 N         142.8295  129.7649  156.1193 N.ar    1  UNL1       -0.1261
     40 C         143.3133  130.0650  157.5071 C.ar    1  UNL1        0.1990
     41 N         143.2693  131.5516  157.7021 N.ar    1  UNL1       -0.3221
     42 H         143.5300  132.0362  158.5184 H       1  UNL1        0.1687
     43 C         143.7624  129.0556  158.5218 C.ar    1  UNL1        0.1988
     44 N         145.2259  128.8525  158.7807 N.ar    1  UNL1       -0.2224
     45 C         145.6750  127.8431  159.7953 C.ar    1  UNL1        0.1023
     46 C         144.6606  127.0369  160.5511 C.ar    1  UNL1        0.0414
     47 C         143.1971  127.2401  160.2921 C.ar    1  UNL1        0.1023
     48 N         142.7481  128.2494  159.2775 N.ar    1  UNL1       -0.2224
@<TRIPOS>BOND
     1    17    18    1
     2    18    19    1
     3    19    20    1
     4    20    21    1
     5    21     7    1
     6     7     8   ar
     7     8     9   ar
     8     9    10   ar
     9    10    11   ar
    10    11    12   ar
    11    12    24    1
    12    24    25   ar
    13    25    26   ar
    14    26    27   ar
    15    27    28   ar
    16    28    29   ar
    17    12    13   ar
    18    13     1    1
    19     1     2   ar
    20     2     3   ar
    21     3     4   ar
    22     4    30    1
    23    30    31    1
    24    31    32    1
    25    32    33    1
    26    33    34    1
    27    34    37    1
    28    37    38   ar
    29    38    39   ar
    30    39    40   ar
    31    40    43    1
    32    43    44   ar
    33    44    45   ar
    34    45    46   ar
    35    46    47   ar
    36    47    48   ar
    37    40    41   ar
    38    34    35    1
    39    35    36    1
    40     4     5   ar
    41     5     6   ar
    42    13    14   ar
    43    14    15   ar
    44    15    16   ar
    45    21    22    1
    46    22    23    1
    47    23    18    1
    48    16     7   ar
    49    15    10   ar
    50    29    24   ar
    51     6     1   ar
    52    36    31    1
    53    41    37   ar
    54    48    43   ar
    55    41    42    1
@<TRIPOS>MOLECULE
*****
 48 55 0 0 0
SMALL
GASTEIGER

@<TRIPOS>ATOM
      1 C         139.1259  142.6119  156.9469 C.ar    1  UNL1        0.0177
      2 C         137.8020  141.9702  156.6547 C.ar    1  UNL1        0.0012
      3 C         137.2124  140.9911  157.6261 C.ar    1  UNL1       -0.0029
      4 C         137.9468  140.6537  158.8898 C.ar    1  UNL1       -0.0061
      5 C         139.2707  141.2954  159.1820 C.ar    1  UNL1       -0.0029
      6 C         139.8603  142.2745  158.2105 C.ar    1  UNL1        0.0012
      7 C         139.9479  148.3958  154.0108 C.ar    1  UNL1        0.2216
      8 N         141.0109  147.9516  153.0501 N.ar    1  UNL1       -0.2120
      9 C         141.4842  146.5283  153.0610 C.ar    1  UNL1        0.1048
     10 C         140.8947  145.5492  154.0325 C.ar    1  UNL1        0.0551
     11 C         141.3681  144.1259  154.0433 C.ar    1  UNL1        0.0061
     12 C         140.7785  143.1468  155.0148 C.ar    1  UNL1        0.0179
     13 C         139.7155  143.5910  155.9754 C.ar    1  UNL1        0.0829
     14 N         139.2421  145.0143  155.9646 N.ar    1  UNL1       -0.2264
     15 C         139.8317  145.9934  154.9931 C.ar    1  UNL1        0.1666
     16 N         139.3583  147.4167  154.9822 N.ar    1  UNL1       -0.1945
     17 C         138.0543  154.0890  153.9673 C.3     1  UNL1        0.0897
     18 N         138.5277  152.6657  153.9782 N.3     1  UNL1       -0.2686
     19 C         138.5084  151.8786  155.2550 C.3     1  UNL1        0.0939
     20 C         138.9818  150.4553  155.2658 C.3     1  UNL1        0.1109
     21 N         139.4745  149.8191  153.9999 N.pl3   1  UNL1       -0.2753
     22 C         139.4938  150.6062  152.7232 C.3     1  UNL1        0.1109
     23 C         139.0204  152.0295  152.7123 C.3     1  UNL1        0.0939
     24 C         141.2519  141.7235  155.0257 C.ar    1  UNL1        0.0015
     25 C         142.5044  141.3553  155.7645 C.ar    1  UNL1        0.0000
     26 C         142.9778  139.9320  155.7753 C.ar    1  UNL1        0.0000
     27 C         142.1987  138.8769  155.0474 C.ar    1  UNL1        0.0000
     28 C         140.9463  139.2451  154.3086 C.ar    1  UNL1        0.0000
     29 C         140.4729  140.6684  154.2977 C.ar    1  UNL1        0.0000
     30 C         137.3572  139.6746  159.8613 C.3     1  UNL1        0.0991
     31 N         137.7328  139.7389  161.3121 N.3     1  UNL1       -0.2689
     32 C         138.3658  138.5523  161.9763 C.3     1  UNL1        0.0728
     33 C         138.7414  138.6166  163.4272 C.3     1  UNL1        0.0249
     34 C         138.4840  139.8677  164.2137 C.3     1  UNL1        0.0613
     35 C         137.8510  141.0544  163.5495 C.3     1  UNL1        0.0249
     36 C         137.4755  140.9900  162.0987 C.3     1  UNL1        0.0728
     37 C         138.8596  139.9320  165.6645 C.ar    1  UNL1        0.1397
     38 N         138.2445  139.1275  166.7710 N.ar    1  UNL1       -0.1335
     39 N         138.9210  139.5105  168.0539 N.ar    1  UNL1       -0.1261
     40 C         139.9541  140.5518  167.7402 C.ar    1  UNL1        0.1990
     41 N         139.9162  140.8123  166.2635 N.ar    1  UNL1       -0.3221
     42 H         140.4849  141.4492  165.7734 H       1  UNL1        0.1687
     43 C         140.8653  141.2159  168.7295 C.ar    1  UNL1        0.1988
     44 N         140.4723  141.2959  170.1749 N.ar    1  UNL1       -0.2224
     45 C         141.3834  141.9600  171.1642 C.ar    1  UNL1        0.1023
     46 C         142.6875  142.5442  170.7082 C.ar    1  UNL1        0.0414
     47 C         143.0805  142.4643  169.2627 C.ar    1  UNL1        0.1023
     48 N         142.1694  141.8001  168.2735 N.ar    1  UNL1       -0.2224
@<TRIPOS>BOND
     1    17    18    1
     2    18    19    1
     3    19    20    1
     4    20    21    1
     5    21     7    1
     6     7     8   ar
     7     8     9   ar
     8     9    10   ar
     9    10    11   ar
    10    11    12   ar
    11    12    24    1
    12    24    25   ar
    13    25    26   ar
    14    26    27   ar
    15    27    28   ar
    16    28    29   ar
    17    12    13   ar
    18    13     1    1
    19     1     2   ar
    20     2     3   ar
    21     3     4   ar
    22     4    30    1
    23    30    31    1
    24    31    32    1
    25    32    33    1
    26    33    34    1
    27    34    37    1
    28    37    38   ar
    29    38    39   ar
    30    39    40   ar
    31    40    43    1
    32    43    44   ar
    33    44    45   ar
    34    45    46   ar
    35    46    47   ar
    36    47    48   ar
    37    40    41   ar
    38    34    35    1
    39    35    36    1
    40     4     5   ar
    41     5     6   ar
    42    13    14   ar
    43    14    15   ar
    44    15    16   ar
    45    21    22    1
    46    22    23    1
    47    23    18    1
    48    16     7   ar
    49    15    10   ar
    50    29    24   ar
    51     6     1   ar
    52    36    31    1
    53    41    37   ar
    54    48    43   ar
    55    41    42    1
@<TRIPOS>MOLECULE
*****
 48 55 0 0 0
SMALL
GASTEIGER

@<TRIPOS>ATOM
      1 C         141.6067  141.1866  158.9112 C.ar    1  UNL1        0.0177
      2 C         140.5933  140.4256  158.1087 C.ar    1  UNL1        0.0012
      3 C         141.0343  139.5837  156.9482 C.ar    1  UNL1       -0.0029
      4 C         142.4887  139.5028  156.5902 C.ar    1  UNL1       -0.0061
      5 C         143.5021  140.2638  157.3927 C.ar    1  UNL1       -0.0029
      6 C         143.0611  141.1057  158.5531 C.ar    1  UNL1        0.0012
      7 C         140.1759  142.5305  165.1479 C.ar    1  UNL1        0.2216
      8 N         139.7887  143.9633  164.9307 N.ar    1  UNL1       -0.2120
      9 C         139.8426  144.5542  163.5531 C.ar    1  UNL1        0.1048
     10 C         140.2836  143.7123  162.3926 C.ar    1  UNL1        0.0551
     11 C         140.3375  144.3033  161.0149 C.ar    1  UNL1        0.0061
     12 C         140.7785  143.4614  159.8545 C.ar    1  UNL1        0.0179
     13 C         141.1657  142.0285  160.0717 C.ar    1  UNL1        0.0829
     14 N         141.1118  141.4376  161.4493 N.ar    1  UNL1       -0.2264
     15 C         140.6708  142.2795  162.6098 C.ar    1  UNL1        0.1666
     16 N         140.6169  141.6886  163.9874 N.ar    1  UNL1       -0.1945
     17 C         139.9604  140.1666  170.6584 C.3     1  UNL1        0.0897
     18 N         140.0143  140.7576  169.2808 N.3     1  UNL1       -0.2686
     19 C         140.5609  142.1397  169.0785 C.3     1  UNL1        0.0939
     20 C         140.6148  142.7307  167.7008 C.3     1  UNL1        0.1109
     21 N         140.1220  141.9396  166.5256 N.pl3   1  UNL1       -0.2753
     22 C         139.5754  140.5574  166.7279 C.3     1  UNL1        0.1109
     23 C         139.5215  139.9665  168.1055 C.3     1  UNL1        0.0939
     24 C         140.8324  144.0523  158.4768 C.ar    1  UNL1        0.0015
     25 C         142.0796  144.7380  158.0031 C.ar    1  UNL1        0.0000
     26 C         142.1334  145.3289  156.6255 C.ar    1  UNL1        0.0000
     27 C         140.9402  145.2341  155.7215 C.ar    1  UNL1        0.0000
     28 C         139.6930  144.5484  156.1952 C.ar    1  UNL1        0.0000
     29 C         139.6391  143.9575  157.5729 C.ar    1  UNL1        0.0000
     30 C         142.9298  138.6610  155.4297 C.3     1  UNL1        0.0991
     31 N         142.7393  137.1735  155.4670 N.3     1  UNL1       -0.2689
     32 C         143.0594  136.4075  156.7163 C.3     1  UNL1        0.0728
     33 C         142.8690  134.9201  156.7536 C.3     1  UNL1        0.0249
     34 C         142.3584  134.1987  155.5416 C.3     1  UNL1        0.0613
     35 C         142.0383  134.9648  154.2923 C.3     1  UNL1        0.0249
     36 C         142.2288  136.4522  154.2550 C.3     1  UNL1        0.0728
     37 C         142.1680  132.7113  155.5788 C.ar    1  UNL1        0.1397
     38 N         142.9418  131.7443  156.4250 N.ar    1  UNL1       -0.1335
     39 N         142.4224  130.3651  156.1456 N.ar    1  UNL1       -0.1261
     40 C         141.3274  130.4798  155.1267 C.ar    1  UNL1        0.1990
     41 N         141.1702  131.9299  154.7764 N.ar    1  UNL1       -0.3221
     42 H         140.5254  132.3032  154.1329 H       1  UNL1        0.1687
     43 C         140.5298  129.3439  154.5579 C.ar    1  UNL1        0.1988
     44 N         140.0317  128.2525  155.4583 N.ar    1  UNL1       -0.2224
     45 C         139.2341  127.1165  154.8895 C.ar    1  UNL1        0.1023
     46 C         138.9344  127.0721  153.4204 C.ar    1  UNL1        0.0414
     47 C         139.4325  128.1637  152.5201 C.ar    1  UNL1        0.1023
     48 N         140.2301  129.2995  153.0889 N.ar    1  UNL1       -0.2224
@<TRIPOS>BOND
     1    17    18    1
     2    18    19    1
     3    19    20    1
     4    20    21    1
     5    21     7    1
     6     7     8   ar
     7     8     9   ar
     8     9    10   ar
     9    10    11   ar
    10    11    12   ar
    11    12    24    1
    12    24    25   ar
    13    25    26   ar
    14    26    27   ar
    15    27    28   ar
    16    28    29   ar
    17    12    13   ar
    18    13     1    1
    19     1     2   ar
    20     2     3   ar
    21     3     4   ar
    22     4    30    1
    23    30    31    1
    24    31    32    1
    25    32    33    1
    26    33    34    1
    27    34    37    1
    28    37    38   ar
    29    38    39   ar
    30    39    40   ar
    31    40    43    1
    32    43    44   ar
    33    44    45   ar
    34    45    46   ar
    35    46    47   ar
    36    47    48   ar
    37    40    41   ar
    38    34    35    1
    39    35    36    1
    40     4     5   ar
    41     5     6   ar
    42    13    14   ar
    43    14    15   ar
    44    15    16   ar
    45    21    22    1
    46    22    23    1
    47    23    18    1
    48    16     7   ar
    49    15    10   ar
    50    29    24   ar
    51     6     1   ar
    52    36    31    1
    53    41    37   ar
    54    48    43   ar
    55    41    42    1
@<TRIPOS>MOLECULE
*****
 48 55 0 0 0
SMALL
GASTEIGER

@<TRIPOS>ATOM
      1 C         141.7053  140.3405  160.0538 C.ar    1  UNL1        0.0177
      2 C         142.7056  140.6657  161.1233 C.ar    1  UNL1        0.0012
      3 C         142.3013  141.5069  162.2975 C.ar    1  UNL1       -0.0029
      4 C         140.8967  142.0229  162.4023 C.ar    1  UNL1       -0.0061
      5 C         139.8965  141.6977  161.3329 C.ar    1  UNL1       -0.0029
      6 C         140.3008  140.8565  160.1586 C.ar    1  UNL1        0.0012
      7 C         143.3955  134.8765  156.8857 C.ar    1  UNL1        0.2216
      8 N         143.5612  135.5055  155.5341 N.ar    1  UNL1       -0.2120
      9 C         143.3226  136.9757  155.3567 C.ar    1  UNL1        0.1048
     10 C         142.9183  137.8169  156.5310 C.ar    1  UNL1        0.0551
     11 C         142.6797  139.2872  156.3536 C.ar    1  UNL1        0.0061
     12 C         142.2753  140.1284  157.5279 C.ar    1  UNL1        0.0179
     13 C         142.1097  139.4993  158.8795 C.ar    1  UNL1        0.0829
     14 N         142.3483  138.0291  159.0569 N.ar    1  UNL1       -0.2264
     15 C         142.7526  137.1879  157.8826 C.ar    1  UNL1        0.1666
     16 N         142.9912  135.7177  158.0599 N.ar    1  UNL1       -0.1945
     17 C         144.3499  128.9955  157.5951 C.3     1  UNL1        0.0897
     18 N         144.1113  130.4657  157.4178 N.3     1  UNL1       -0.2686
     19 C         145.0426  131.4581  158.0486 C.3     1  UNL1        0.0939
     20 C         144.8039  132.9284  157.8712 C.3     1  UNL1        0.1109
     21 N         143.6342  133.4062  157.0630 N.pl3   1  UNL1       -0.2753
     22 C         142.7029  132.4138  156.4322 C.3     1  UNL1        0.1109
     23 C         142.9415  130.9436  156.6095 C.3     1  UNL1        0.0939
     24 C         142.0367  141.5986  157.3506 C.ar    1  UNL1        0.0015
     25 C         140.8096  142.0781  156.6333 C.ar    1  UNL1        0.0000
     26 C         140.5710  143.5484  156.4560 C.ar    1  UNL1        0.0000
     27 C         141.5594  144.5391  156.9959 C.ar    1  UNL1        0.0000
     28 C         142.7865  144.0596  157.7130 C.ar    1  UNL1        0.0000
     29 C         143.0252  142.5893  157.8904 C.ar    1  UNL1        0.0000
     30 C         140.4924  142.8641  163.5766 C.3     1  UNL1        0.0991
     31 N         140.2225  142.2192  164.9038 N.3     1  UNL1       -0.2689
     32 C         140.7554  142.8394  166.1612 C.3     1  UNL1        0.0728
     33 C         140.4855  142.1945  167.4884 C.3     1  UNL1        0.0249
     34 C         139.6828  140.9292  167.5580 C.3     1  UNL1        0.0613
     35 C         139.1500  140.3090  166.3004 C.3     1  UNL1        0.0249
     36 C         139.4198  140.9539  164.9734 C.3     1  UNL1        0.0728
     37 C         139.4130  140.2843  168.8851 C.ar    1  UNL1        0.1397
     38 N         140.3947  140.1367  170.0095 N.ar    1  UNL1       -0.1335
     39 N         139.7025  139.4349  171.1401 N.ar    1  UNL1       -0.1261
     40 C         138.2929  139.1487  170.7143 C.ar    1  UNL1        0.1990
     41 N         138.1140  139.6736  169.3207 N.ar    1  UNL1       -0.3221
     42 H         137.2889  139.6258  168.7857 H       1  UNL1        0.1687
     43 C         137.2460  138.4586  171.5377 C.ar    1  UNL1        0.1988
     44 N         135.8793  139.0619  171.6719 N.ar    1  UNL1       -0.2224
     45 C         134.8324  138.3718  172.4953 C.ar    1  UNL1        0.1023
     46 C         135.1523  137.0786  173.1845 C.ar    1  UNL1        0.0414
     47 C         136.5192  136.4753  173.0504 C.ar    1  UNL1        0.1023
     48 N         137.5660  137.1654  172.2270 N.ar    1  UNL1       -0.2224
@<TRIPOS>BOND
     1    17    18    1
     2    18    19    1
     3    19    20    1
     4    20    21    1
     5    21     7    1
     6     7     8   ar
     7     8     9   ar
     8     9    10   ar
     9    10    11   ar
    10    11    12   ar
    11    12    24    1
    12    24    25   ar
    13    25    26   ar
    14    26    27   ar
    15    27    28   ar
    16    28    29   ar
    17    12    13   ar
    18    13     1    1
    19     1     2   ar
    20     2     3   ar
    21     3     4   ar
    22     4    30    1
    23    30    31    1
    24    31    32    1
    25    32    33    1
    26    33    34    1
    27    34    37    1
    28    37    38   ar
    29    38    39   ar
    30    39    40   ar
    31    40    43    1
    32    43    44   ar
    33    44    45   ar
    34    45    46   ar
    35    46    47   ar
    36    47    48   ar
    37    40    41   ar
    38    34    35    1
    39    35    36    1
    40     4     5   ar
    41     5     6   ar
    42    13    14   ar
    43    14    15   ar
    44    15    16   ar
    45    21    22    1
    46    22    23    1
    47    23    18    1
    48    16     7   ar
    49    15    10   ar
    50    29    24   ar
    51     6     1   ar
    52    36    31    1
    53    41    37   ar
    54    48    43   ar
    55    41    42    1
@<TRIPOS>MOLECULE
*****
 48 55 0 0 0
SMALL
GASTEIGER

@<TRIPOS>ATOM
      1 C         142.2694  137.4103  156.7517 C.ar    1  UNL1        0.0177
      2 C         143.3807  138.2489  156.1931 C.ar    1  UNL1        0.0012
      3 C         143.5964  139.6434  156.7018 C.ar    1  UNL1       -0.0029
      4 C         142.7009  140.1993  157.7691 C.ar    1  UNL1       -0.0061
      5 C         141.5897  139.3608  158.3277 C.ar    1  UNL1       -0.0029
      6 C         141.3740  137.9662  157.8190 C.ar    1  UNL1        0.0012
      7 C         143.2084  130.9511  156.3681 C.ar    1  UNL1        0.2216
      8 N         142.1996  130.6944  155.2882 N.ar    1  UNL1       -0.2120
      9 C         141.4065  131.8322  154.7169 C.ar    1  UNL1        0.1048
     10 C         141.6222  133.2267  155.2256 C.ar    1  UNL1        0.0551
     11 C         140.8291  134.3646  154.6543 C.ar    1  UNL1        0.0061
     12 C         141.0448  135.7591  155.1630 C.ar    1  UNL1        0.0179
     13 C         142.0537  136.0158  156.2430 C.ar    1  UNL1        0.0829
     14 N         142.8468  134.8780  156.8143 N.ar    1  UNL1       -0.2264
     15 C         142.6311  133.4835  156.3056 C.ar    1  UNL1        0.1666
     16 N         143.4242  132.3457  156.8768 N.ar    1  UNL1       -0.1945
     17 C         146.3810  126.4000  158.6533 C.3     1  UNL1        0.0897
     18 N         145.5879  127.5377  158.0820 N.3     1  UNL1       -0.2686
     19 C         145.3004  127.5873  156.6106 C.3     1  UNL1        0.0939
     20 C         144.5072  128.7251  156.0393 C.3     1  UNL1        0.1109
     21 N         144.0016  129.8133  156.9394 N.pl3   1  UNL1       -0.2753
     22 C         144.2891  129.7638  158.4107 C.3     1  UNL1        0.1109
     23 C         145.0822  128.6260  158.9821 C.3     1  UNL1        0.0939
     24 C         140.2517  136.8969  154.5918 C.ar    1  UNL1        0.0015
     25 C         140.7948  137.6841  153.4361 C.ar    1  UNL1        0.0000
     26 C         140.0018  138.8219  152.8649 C.ar    1  UNL1        0.0000
     27 C         138.6655  139.1726  153.4493 C.ar    1  UNL1        0.0000
     28 C         138.1224  138.3855  154.6048 C.ar    1  UNL1        0.0000
     29 C         138.9155  137.2476  155.1761 C.ar    1  UNL1        0.0000
     30 C         142.9167  141.5939  158.2778 C.3     1  UNL1        0.0991
     31 N         143.0815  141.8386  159.7486 N.3     1  UNL1       -0.2689
     32 C         141.8748  141.9138  160.6363 C.3     1  UNL1        0.0728
     33 C         142.0396  142.1585  162.1070 C.3     1  UNL1        0.0249
     34 C         143.4113  142.3280  162.6900 C.3     1  UNL1        0.0613
     35 C         144.6181  142.2528  161.8022 C.3     1  UNL1        0.0249
     36 C         144.4532  142.0081  160.3315 C.3     1  UNL1        0.0728
     37 C         143.5762  142.5727  164.1606 C.ar    1  UNL1        0.1397
     38 N         144.4683  143.6022  164.7886 N.ar    1  UNL1       -0.1335
     39 N         144.3214  143.4966  166.2776 N.ar    1  UNL1       -0.1261
     40 C         143.3384  142.4019  166.5699 C.ar    1  UNL1        0.1990
     41 N         142.8779  141.8309  165.2616 N.ar    1  UNL1       -0.3221
     42 H         142.2308  141.0980  165.1458 H       1  UNL1        0.1687
     43 C         142.8940  141.9565  167.9316 C.ar    1  UNL1        0.1988
     44 N         142.0729  140.7102  168.0821 N.ar    1  UNL1       -0.2224
     45 C         141.6285  140.2648  169.4438 C.ar    1  UNL1        0.1023
     46 C         142.0053  141.0655  170.6549 C.ar    1  UNL1        0.0414
     47 C         142.8264  142.3118  170.5043 C.ar    1  UNL1        0.1023
     48 N         143.2708  142.7572  169.1427 N.ar    1  UNL1       -0.2224
@<TRIPOS>BOND
     1    17    18    1
     2    18    19    1
     3    19    20    1
     4    20    21    1
     5    21     7    1
     6     7     8   ar
     7     8     9   ar
     8     9    10   ar
     9    10    11   ar
    10    11    12   ar
    11    12    24    1
    12    24    25   ar
    13    25    26   ar
    14    26    27   ar
    15    27    28   ar
    16    28    29   ar
    17    12    13   ar
    18    13     1    1
    19     1     2   ar
    20     2     3   ar
    21     3     4   ar
    22     4    30    1
    23    30    31    1
    24    31    32    1
    25    32    33    1
    26    33    34    1
    27    34    37    1
    28    37    38   ar
    29    38    39   ar
    30    39    40   ar
    31    40    43    1
    32    43    44   ar
    33    44    45   ar
    34    45    46   ar
    35    46    47   ar
    36    47    48   ar
    37    40    41   ar
    38    34    35    1
    39    35    36    1
    40     4     5   ar
    41     5     6   ar
    42    13    14   ar
    43    14    15   ar
    44    15    16   ar
    45    21    22    1
    46    22    23    1
    47    23    18    1
    48    16     7   ar
    49    15    10   ar
    50    29    24   ar
    51     6     1   ar
    52    36    31    1
    53    41    37   ar
    54    48    43   ar
    55    41    42    1
@<TRIPOS>MOLECULE
*****
 48 55 0 0 0
SMALL
GASTEIGER

@<TRIPOS>ATOM
      1 C         141.7044  140.7649  164.0178 C.ar    1  UNL1        0.0177
      2 C         140.8996  139.8912  163.1018 C.ar    1  UNL1        0.0012
      3 C         141.0726  140.0020  161.6160 C.ar    1  UNL1       -0.0029
      4 C         142.0504  140.9866  161.0461 C.ar    1  UNL1       -0.0061
      5 C         142.8551  141.8602  161.9621 C.ar    1  UNL1       -0.0029
      6 C         142.6821  141.7493  163.4480 C.ar    1  UNL1        0.0012
      7 C         142.9768  138.6242  170.0633 C.ar    1  UNL1        0.2216
      8 N         141.9081  139.4174  170.7552 N.ar    1  UNL1       -0.2120
      9 C         141.0125  140.3214  169.9613 C.ar    1  UNL1        0.1048
     10 C         141.1854  140.4323  168.4754 C.ar    1  UNL1        0.0551
     11 C         140.2897  141.3364  167.6815 C.ar    1  UNL1        0.0061
     12 C         140.4627  141.4473  166.1956 C.ar    1  UNL1        0.0179
     13 C         141.5314  140.6540  165.5037 C.ar    1  UNL1        0.0829
     14 N         142.4271  139.7500  166.2977 N.ar    1  UNL1       -0.2264
     15 C         142.2541  139.6391  167.7835 C.ar    1  UNL1        0.1666
     16 N         143.1498  138.7350  168.5775 N.ar    1  UNL1       -0.1945
     17 C         146.5596  135.0077  173.2390 C.3     1  UNL1        0.0897
     18 N         145.6639  135.9118  172.4452 N.3     1  UNL1       -0.2686
     19 C         145.7251  137.3965  172.6499 C.3     1  UNL1        0.0939
     20 C         144.8293  138.3007  171.8560 C.3     1  UNL1        0.1109
     21 N         143.8725  137.7201  170.8573 N.pl3   1  UNL1       -0.2753
     22 C         143.8114  136.2354  170.6525 C.3     1  UNL1        0.1109
     23 C         144.7071  135.3313  171.4464 C.3     1  UNL1        0.0939
     24 C         139.5670  142.3513  165.4016 C.ar    1  UNL1        0.0015
     25 C         139.9206  143.7995  165.2347 C.ar    1  UNL1        0.0000
     26 C         139.0250  144.7036  164.4408 C.ar    1  UNL1        0.0000
     27 C         137.7757  144.1595  163.8137 C.ar    1  UNL1        0.0000
     28 C         137.4220  142.7114  163.9806 C.ar    1  UNL1        0.0000
     29 C         138.3177  141.8073  164.7746 C.ar    1  UNL1        0.0000
     30 C         142.2234  141.0975  159.5602 C.3     1  UNL1        0.0991
     31 N         142.0695  139.8821  158.6945 N.3     1  UNL1       -0.2689
     32 C         142.8727  138.6487  158.9838 C.3     1  UNL1        0.0728
     33 C         142.7189  137.4334  158.1181 C.3     1  UNL1        0.0249
     34 C         141.7619  137.4516  156.9631 C.3     1  UNL1        0.0613
     35 C         140.9588  138.6850  156.6739 C.3     1  UNL1        0.0249
     36 C         141.1126  139.9003  157.5396 C.3     1  UNL1        0.0728
     37 C         141.6081  136.2363  156.0974 C.ar    1  UNL1        0.1397
     38 N         141.1691  136.2253  154.6631 N.ar    1  UNL1       -0.1335
     39 N         141.1559  134.8009  154.1932 N.ar    1  UNL1       -0.1261
     40 C         141.5868  133.9315  155.3372 C.ar    1  UNL1        0.1990
     41 N         141.8662  134.8187  156.5140 N.ar    1  UNL1       -0.3221
     42 H         142.1664  134.5225  157.4036 H       1  UNL1        0.1687
     43 C         141.7156  132.4373  155.3092 C.ar    1  UNL1        0.1988
     44 N         142.9102  131.7757  155.9299 N.ar    1  UNL1       -0.2224
     45 C         143.0390  130.2815  155.9019 C.ar    1  UNL1        0.1023
     46 C         141.9732  129.4489  155.2532 C.ar    1  UNL1        0.0414
     47 C         140.7786  130.1105  154.6325 C.ar    1  UNL1        0.1023
     48 N         140.6498  131.6046  154.6605 N.ar    1  UNL1       -0.2224
@<TRIPOS>BOND
     1    17    18    1
     2    18    19    1
     3    19    20    1
     4    20    21    1
     5    21     7    1
     6     7     8   ar
     7     8     9   ar
     8     9    10   ar
     9    10    11   ar
    10    11    12   ar
    11    12    24    1
    12    24    25   ar
    13    25    26   ar
    14    26    27   ar
    15    27    28   ar
    16    28    29   ar
    17    12    13   ar
    18    13     1    1
    19     1     2   ar
    20     2     3   ar
    21     3     4   ar
    22     4    30    1
    23    30    31    1
    24    31    32    1
    25    32    33    1
    26    33    34    1
    27    34    37    1
    28    37    38   ar
    29    38    39   ar
    30    39    40   ar
    31    40    43    1
    32    43    44   ar
    33    44    45   ar
    34    45    46   ar
    35    46    47   ar
    36    47    48   ar
    37    40    41   ar
    38    34    35    1
    39    35    36    1
    40     4     5   ar
    41     5     6   ar
    42    13    14   ar
    43    14    15   ar
    44    15    16   ar
    45    21    22    1
    46    22    23    1
    47    23    18    1
    48    16     7   ar
    49    15    10   ar
    50    29    24   ar
    51     6     1   ar
    52    36    31    1
    53    41    37   ar
    54    48    43   ar
    55    41    42    1
