@<TRIPOS>MOLECULE
*****
 33 37 0 0 0
SMALL
GASTEIGER

@<TRIPOS>ATOM
      1 C         142.1718  137.9527  164.1402 C.3     1  UNL1        0.2355
      2 O         142.8894  138.6966  165.2272 O.3     1  UNL1       -0.3290
      3 C         144.0322  139.6061  164.8853 C.3     1  UNL1        0.1629
      4 C         144.4574  139.7716  163.4563 C.3     1  UNL1        0.1144
      5 C         143.7398  139.0277  162.3693 C.3     1  UNL1        0.1629
      6 O         142.5969  138.1182  162.7113 O.3     1  UNL1       -0.3290
      7 N         145.6002  140.6811  163.1144 N.3     1  UNL1       -0.2908
      8 H         145.6893  140.6727  162.0983 H       1  UNL1        0.1237
      9 C         145.5645  142.1207  163.5342 C.3     1  UNL1        0.0958
     10 C         144.3257  142.9364  163.3114 C.ar    1  UNL1       -0.0032
     11 C         143.5125  143.4007  164.4833 C.ar    1  UNL1        0.0004
     12 C         142.2737  144.2165  164.2605 C.ar    1  UNL1        0.0398
     13 C         141.8479  144.5680  162.8658 C.ar    1  UNL1        0.1724
     14 C         142.6609  144.1038  161.6939 C.ar    1  UNL1        0.1721
     15 C         143.8999  143.2879  161.9167 C.ar    1  UNL1        0.0371
     16 O         142.2351  144.4553  160.2992 O.3     1  UNL1       -0.4684
     17 C         140.9963  145.2710  160.0764 C.3     1  UNL1        0.2526
     18 C         140.1831  145.7353  161.2483 C.3     1  UNL1        0.2526
     19 O         140.6089  145.3838  162.6430 O.3     1  UNL1       -0.4684
     20 C         141.0290  137.0433  164.4821 C.3     1  UNL1        0.0660
     21 C         139.6807  137.6195  164.7986 C.3     1  UNL1        0.0316
     22 C         139.4889  142.0533  165.5433 C.ar    1  UNL1        0.1388
     23 C         138.8061  142.9510  164.5545 C.ar    1  UNL1        0.0384
     24 C         138.1872  142.3708  163.3175 C.ar    1  UNL1        0.0222
     25 C         138.2511  140.8929  163.0692 C.ar    1  UNL1        0.0812
     26 N         137.6321  140.3127  161.8321 N.ar    1  UNL1       -0.2439
     27 C         137.6960  138.8348  161.5839 C.ar    1  UNL1        0.0985
     28 C         138.3789  137.9370  162.5727 C.ar    1  UNL1        0.0164
     29 C         138.9978  138.5172  163.8098 C.ar    1  UNL1       -0.0189
     30 C         138.9339  139.9952  164.0580 C.ar    1  UNL1        0.0168
     31 C         139.5528  140.5754  165.2951 C.ar    1  UNL1        0.0381
     32 C         141.3826  142.0576  167.3221 C.3     1  UNL1        0.2525
     33 O         140.1079  142.6334  166.7804 O.3     1  UNL1       -0.4714
@<TRIPOS>BOND
     1    32    33    1
     2    33    22    1
     3    22    23   ar
     4    23    24   ar
     5    24    25   ar
     6    25    26   ar
     7    26    27   ar
     8    27    28   ar
     9    28    29   ar
    10    29    21    1
    11    21    20    1
    12     1    20    1
    13     1     2    1
    14     2     3    1
    15     3     4    1
    16     4     7    1
    17     7     9    1
    18     9    10    1
    19    10    11   ar
    20    11    12   ar
    21    12    13   ar
    22    13    14   ar
    23    14    15   ar
    24    14    16    1
    25    16    17    1
    26    17    18    1
    27    18    19    1
    28     4     5    1
    29     5     6    1
    30    29    30   ar
    31    30    31   ar
    32    31    22   ar
    33    30    25   ar
    34     6     1    1
    35    15    10   ar
    36    19    13    1
    37     7     8    1
@<TRIPOS>MOLECULE
*****
 33 37 0 0 0
SMALL
GASTEIGER

@<TRIPOS>ATOM
      1 C         137.7558  142.8371  163.2723 C.3     1  UNL1        0.2355
      2 O         137.8206  141.7142  164.2646 O.3     1  UNL1       -0.3290
      3 C         137.8648  140.2929  163.7871 C.3     1  UNL1        0.1629
      4 C         137.8442  139.9946  162.3171 C.3     1  UNL1        0.1144
      5 C         137.7795  141.1176  161.3248 C.3     1  UNL1        0.1629
      6 O         137.7352  142.5389  161.8024 O.3     1  UNL1       -0.3290
      7 N         137.8884  138.5734  161.8396 N.3     1  UNL1       -0.2908
      8 H         137.2661  138.5141  161.0336 H       1  UNL1        0.1237
      9 C         139.1937  137.9619  161.4246 C.3     1  UNL1        0.0958
     10 C         140.4301  138.2100  162.2369 C.ar    1  UNL1       -0.0032
     11 C         140.6521  137.4558  163.5144 C.ar    1  UNL1        0.0004
     12 C         141.8884  137.7039  164.3267 C.ar    1  UNL1        0.0398
     13 C         142.9028  138.7062  163.8616 C.ar    1  UNL1        0.1724
     14 C         142.6809  139.4604  162.5842 C.ar    1  UNL1        0.1721
     15 C         141.4445  139.2123  161.7718 C.ar    1  UNL1        0.0371
     16 O         143.6953  140.4627  162.1190 O.3     1  UNL1       -0.4684
     17 C         144.9316  140.7108  162.9313 C.3     1  UNL1        0.2526
     18 C         145.1536  139.9566  164.2089 C.3     1  UNL1        0.2526
     19 O         144.1392  138.9543  164.6740 O.3     1  UNL1       -0.4684
     20 C         137.7116  144.2584  163.7499 C.3     1  UNL1        0.0660
     21 C         138.7884  144.7793  164.6550 C.3     1  UNL1        0.0316
     22 C         140.9062  141.8764  167.3639 C.ar    1  UNL1        0.1388
     23 C         142.3401  141.5196  167.1063 C.ar    1  UNL1        0.0384
     24 C         143.0682  142.1304  165.9458 C.ar    1  UNL1        0.0222
     25 C         142.3623  143.0980  165.0428 C.ar    1  UNL1        0.0812
     26 N         143.0903  143.7089  163.8823 N.ar    1  UNL1       -0.2439
     27 C         142.3844  144.6765  162.9794 C.ar    1  UNL1        0.0985
     28 C         140.9504  145.0333  163.2369 C.ar    1  UNL1        0.0164
     29 C         140.2223  144.4225  164.3975 C.ar    1  UNL1       -0.0189
     30 C         140.9283  143.4548  165.3004 C.ar    1  UNL1        0.0168
     31 C         140.2002  142.8440  166.4610 C.ar    1  UNL1        0.0381
     32 C         140.7310  140.0448  169.1982 C.3     1  UNL1        0.2525
     33 O         140.1781  141.2656  168.5244 O.3     1  UNL1       -0.4714
@<TRIPOS>BOND
     1    32    33    1
     2    33    22    1
     3    22    23   ar
     4    23    24   ar
     5    24    25   ar
     6    25    26   ar
     7    26    27   ar
     8    27    28   ar
     9    28    29   ar
    10    29    21    1
    11    21    20    1
    12     1    20    1
    13     1     2    1
    14     2     3    1
    15     3     4    1
    16     4     7    1
    17     7     9    1
    18     9    10    1
    19    10    11   ar
    20    11    12   ar
    21    12    13   ar
    22    13    14   ar
    23    14    15   ar
    24    14    16    1
    25    16    17    1
    26    17    18    1
    27    18    19    1
    28     4     5    1
    29     5     6    1
    30    29    30   ar
    31    30    31   ar
    32    31    22   ar
    33    30    25   ar
    34     6     1    1
    35    15    10   ar
    36    19    13    1
    37     7     8    1
@<TRIPOS>MOLECULE
*****
 33 37 0 0 0
SMALL
GASTEIGER

@<TRIPOS>ATOM
      1 C         137.9729  139.8800  162.1710 C.3     1  UNL1        0.2355
      2 O         137.5734  140.5467  163.4540 O.3     1  UNL1       -0.3290
      3 C         137.5157  142.0433  163.5352 C.3     1  UNL1        0.1629
      4 C         137.8576  142.8734  162.3335 C.3     1  UNL1        0.1144
      5 C         138.2572  142.2068  161.0505 C.3     1  UNL1        0.1629
      6 O         138.3148  140.7100  160.9693 O.3     1  UNL1       -0.3290
      7 N         137.7999  144.3701  162.4147 N.3     1  UNL1       -0.2908
      8 H         137.0433  144.6011  163.0585 H       1  UNL1        0.1237
      9 C         139.0034  145.1436  162.8656 C.3     1  UNL1        0.0958
     10 C         140.2893  144.4281  163.1562 C.ar    1  UNL1       -0.0032
     11 C         140.5842  143.9508  164.5474 C.ar    1  UNL1        0.0004
     12 C         141.8701  143.2353  164.8380 C.ar    1  UNL1        0.0398
     13 C         142.8611  142.9970  163.7374 C.ar    1  UNL1        0.1724
     14 C         142.5662  143.4743  162.3463 C.ar    1  UNL1        0.1721
     15 C         141.2803  144.1899  162.0557 C.ar    1  UNL1        0.0371
     16 O         143.5572  143.2360  161.2458 O.3     1  UNL1       -0.4684
     17 C         144.8431  142.5205  161.5364 C.3     1  UNL1        0.2526
     18 C         145.1380  142.0432  162.9276 C.3     1  UNL1        0.2526
     19 O         144.1470  142.2814  164.0281 O.3     1  UNL1       -0.4684
     20 C         138.0306  138.3834  162.0898 C.3     1  UNL1        0.0660
     21 C         138.8907  137.6128  163.0472 C.3     1  UNL1        0.0316
     22 C         140.1770  139.5916  166.8787 C.ar    1  UNL1        0.1388
     23 C         141.6121  139.9800  167.0771 C.ar    1  UNL1        0.0384
     24 C         142.6185  139.7090  165.9983 C.ar    1  UNL1        0.0222
     25 C         142.1898  139.0494  164.7212 C.ar    1  UNL1        0.0812
     26 N         143.1962  138.7783  163.6425 N.ar    1  UNL1       -0.2439
     27 C         142.7675  138.1188  162.3653 C.ar    1  UNL1        0.0985
     28 C         141.3323  137.7303  162.1669 C.ar    1  UNL1        0.0164
     29 C         140.3259  138.0013  163.2456 C.ar    1  UNL1       -0.0189
     30 C         140.7547  138.6609  164.5228 C.ar    1  UNL1        0.0168
     31 C         139.7483  138.9320  165.6015 C.ar    1  UNL1        0.0381
     32 C         139.5855  140.5815  169.2068 C.3     1  UNL1        0.2525
     33 O         139.1706  139.8626  167.9574 O.3     1  UNL1       -0.4714
@<TRIPOS>BOND
     1    32    33    1
     2    33    22    1
     3    22    23   ar
     4    23    24   ar
     5    24    25   ar
     6    25    26   ar
     7    26    27   ar
     8    27    28   ar
     9    28    29   ar
    10    29    21    1
    11    21    20    1
    12     1    20    1
    13     1     2    1
    14     2     3    1
    15     3     4    1
    16     4     7    1
    17     7     9    1
    18     9    10    1
    19    10    11   ar
    20    11    12   ar
    21    12    13   ar
    22    13    14   ar
    23    14    15   ar
    24    14    16    1
    25    16    17    1
    26    17    18    1
    27    18    19    1
    28     4     5    1
    29     5     6    1
    30    29    30   ar
    31    30    31   ar
    32    31    22   ar
    33    30    25   ar
    34     6     1    1
    35    15    10   ar
    36    19    13    1
    37     7     8    1
@<TRIPOS>MOLECULE
*****
 33 37 0 0 0
SMALL
GASTEIGER

@<TRIPOS>ATOM
      1 C         143.0718  144.0090  162.4989 C.3     1  UNL1        0.2355
      2 O         142.4487  144.5980  163.7297 O.3     1  UNL1       -0.3290
      3 C         141.0036  144.9999  163.7199 C.3     1  UNL1        0.1629
      4 C         140.1815  144.8127  162.4792 C.3     1  UNL1        0.1144
      5 C         140.8045  144.2237  161.2484 C.3     1  UNL1        0.1629
      6 O         142.2497  143.8218  161.2583 O.3     1  UNL1       -0.3290
      7 N         138.7364  145.2146  162.4694 N.3     1  UNL1       -0.2908
      8 H         138.4424  145.2328  161.4928 H       1  UNL1        0.1237
      9 C         137.7242  144.3926  163.2110 C.3     1  UNL1        0.0958
     10 C         137.9896  142.9412  163.4814 C.ar    1  UNL1       -0.0032
     11 C         138.4612  142.5048  164.8368 C.ar    1  UNL1        0.0004
     12 C         138.7266  141.0535  165.1072 C.ar    1  UNL1        0.0398
     13 C         138.5202  140.0385  164.0223 C.ar    1  UNL1        0.1724
     14 C         138.0486  140.4748  162.6669 C.ar    1  UNL1        0.1721
     15 C         137.7832  141.9262  162.3964 C.ar    1  UNL1        0.0371
     16 O         137.8422  139.4598  161.5819 O.3     1  UNL1       -0.4684
     17 C         138.1076  138.0085  161.8523 C.3     1  UNL1        0.2526
     18 C         138.5792  137.5721  163.2078 C.3     1  UNL1        0.2526
     19 O         138.7856  138.5871  164.2927 O.3     1  UNL1       -0.4684
     20 C         144.5169  143.6071  162.5087 C.3     1  UNL1        0.0660
     21 C         144.9955  142.5521  163.4616 C.3     1  UNL1        0.0316
     22 C         142.4781  141.4211  167.0160 C.ar    1  UNL1        0.1388
     23 C         141.7982  140.0848  167.0587 C.ar    1  UNL1        0.0384
     24 C         141.9573  139.1255  165.9166 C.ar    1  UNL1        0.0222
     25 C         142.7964  139.5024  164.7318 C.ar    1  UNL1        0.0812
     26 N         142.9556  138.5431  163.5897 N.ar    1  UNL1       -0.2439
     27 C         143.7947  138.9201  162.4050 C.ar    1  UNL1        0.0985
     28 C         144.4747  140.2565  162.3622 C.ar    1  UNL1        0.0164
     29 C         144.3155  141.2158  163.5043 C.ar    1  UNL1       -0.0189
     30 C         143.4764  140.8388  164.6891 C.ar    1  UNL1        0.0168
     31 C         143.3172  141.7981  165.8312 C.ar    1  UNL1        0.0381
     32 C         143.3535  142.4332  169.2429 C.3     1  UNL1        0.2525
     33 O         142.3190  142.3804  168.1581 O.3     1  UNL1       -0.4714
@<TRIPOS>BOND
     1    32    33    1
     2    33    22    1
     3    22    23   ar
     4    23    24   ar
     5    24    25   ar
     6    25    26   ar
     7    26    27   ar
     8    27    28   ar
     9    28    29   ar
    10    29    21    1
    11    21    20    1
    12     1    20    1
    13     1     2    1
    14     2     3    1
    15     3     4    1
    16     4     7    1
    17     7     9    1
    18     9    10    1
    19    10    11   ar
    20    11    12   ar
    21    12    13   ar
    22    13    14   ar
    23    14    15   ar
    24    14    16    1
    25    16    17    1
    26    17    18    1
    27    18    19    1
    28     4     5    1
    29     5     6    1
    30    29    30   ar
    31    30    31   ar
    32    31    22   ar
    33    30    25   ar
    34     6     1    1
    35    15    10   ar
    36    19    13    1
    37     7     8    1
@<TRIPOS>MOLECULE
*****
 33 37 0 0 0
SMALL
GASTEIGER

@<TRIPOS>ATOM
      1 C         142.9613  141.3260  166.2501 C.3     1  UNL1        0.2355
      2 O         143.2280  139.8524  166.3366 O.3     1  UNL1       -0.3290
      3 C         143.7497  139.1132  165.1402 C.3     1  UNL1        0.1629
      4 C         144.0047  139.8475  163.8573 C.3     1  UNL1        0.1144
      5 C         143.7380  141.3211  163.7708 C.3     1  UNL1        0.1629
      6 O         143.2163  142.0603  164.9673 O.3     1  UNL1       -0.3290
      7 N         144.5264  139.1083  162.6609 N.3     1  UNL1       -0.2908
      8 H         145.3986  138.6634  162.9470 H       1  UNL1        0.1237
      9 C         143.6901  138.0449  162.0130 C.3     1  UNL1        0.0958
     10 C         142.2028  138.2143  161.9184 C.ar    1  UNL1       -0.0032
     11 C         141.3037  137.4997  162.8833 C.ar    1  UNL1        0.0004
     12 C         139.8163  137.6691  162.7888 C.ar    1  UNL1        0.0398
     13 C         139.2279  138.5531  161.7293 C.ar    1  UNL1        0.1724
     14 C         140.1270  139.2676  160.7644 C.ar    1  UNL1        0.1721
     15 C         141.6144  139.0983  160.8589 C.ar    1  UNL1        0.0371
     16 O         139.5386  140.1516  159.7049 O.3     1  UNL1       -0.4684
     17 C         138.0513  140.3210  159.6104 C.3     1  UNL1        0.2526
     18 C         137.1521  139.6064  160.5753 C.3     1  UNL1        0.2526
     19 O         137.7405  138.7224  161.6348 O.3     1  UNL1       -0.4684
     20 C         142.4396  142.0652  167.4465 C.3     1  UNL1        0.0660
     21 C         140.9608  142.2077  167.6539 C.3     1  UNL1        0.0316
     22 C         139.0450  143.9050  163.9527 C.ar    1  UNL1        0.1388
     23 C         138.0913  143.0694  163.1514 C.ar    1  UNL1        0.0384
     24 C         137.7761  141.6680  163.5837 C.ar    1  UNL1        0.0222
     25 C         138.4147  141.1023  164.8175 C.ar    1  UNL1        0.0812
     26 N         138.0996  139.7010  165.2498 N.ar    1  UNL1       -0.2439
     27 C         138.7381  139.1352  166.4835 C.ar    1  UNL1        0.0985
     28 C         139.6919  139.9708  167.2850 C.ar    1  UNL1        0.0164
     29 C         140.0071  141.3721  166.8526 C.ar    1  UNL1       -0.0189
     30 C         139.3684  141.9379  165.6188 C.ar    1  UNL1        0.0168
     31 C         139.6836  143.3392  165.1864 C.ar    1  UNL1        0.0381
     32 C         139.6077  145.6064  162.0717 C.3     1  UNL1        0.2525
     33 O         139.3601  145.3063  163.5203 O.3     1  UNL1       -0.4714
@<TRIPOS>BOND
     1    32    33    1
     2    33    22    1
     3    22    23   ar
     4    23    24   ar
     5    24    25   ar
     6    25    26   ar
     7    26    27   ar
     8    27    28   ar
     9    28    29   ar
    10    29    21    1
    11    21    20    1
    12     1    20    1
    13     1     2    1
    14     2     3    1
    15     3     4    1
    16     4     7    1
    17     7     9    1
    18     9    10    1
    19    10    11   ar
    20    11    12   ar
    21    12    13   ar
    22    13    14   ar
    23    14    15   ar
    24    14    16    1
    25    16    17    1
    26    17    18    1
    27    18    19    1
    28     4     5    1
    29     5     6    1
    30    29    30   ar
    31    30    31   ar
    32    31    22   ar
    33    30    25   ar
    34     6     1    1
    35    15    10   ar
    36    19    13    1
    37     7     8    1
@<TRIPOS>MOLECULE
*****
 33 37 0 0 0
SMALL
GASTEIGER

@<TRIPOS>ATOM
      1 C         142.4278  144.7946  163.4995 C.3     1  UNL1        0.2355
      2 O         142.2667  144.6080  162.0199 O.3     1  UNL1       -0.3290
      3 C         140.9108  144.3292  161.4423 C.3     1  UNL1        0.1629
      4 C         139.7158  144.2369  162.3444 C.3     1  UNL1        0.1144
      5 C         139.8769  144.4235  163.8240 C.3     1  UNL1        0.1629
      6 O         141.2329  144.7024  164.4015 O.3     1  UNL1       -0.3290
      7 N         138.3599  143.9580  161.7668 N.3     1  UNL1       -0.2908
      8 H         138.1827  144.6807  161.0692 H       1  UNL1        0.1237
      9 C         138.0829  142.6405  161.1054 C.3     1  UNL1        0.0958
     10 C         138.3086  141.3620  161.8566 C.ar    1  UNL1       -0.0032
     11 C         138.8508  140.1588  161.1436 C.ar    1  UNL1        0.0004
     12 C         139.0765  138.8803  161.8948 C.ar    1  UNL1        0.0398
     13 C         138.7602  138.8049  163.3592 C.ar    1  UNL1        0.1724
     14 C         138.2181  140.0081  164.0722 C.ar    1  UNL1        0.1721
     15 C         137.9923  141.2867  163.3210 C.ar    1  UNL1        0.0371
     16 O         137.9017  139.9327  165.5365 O.3     1  UNL1       -0.4684
     17 C         138.1275  138.6542  166.2878 C.3     1  UNL1        0.2526
     18 C         138.6696  137.4510  165.5747 C.3     1  UNL1        0.2526
     19 O         138.9859  137.5263  164.1104 O.3     1  UNL1       -0.4684
     20 C         143.7837  145.0735  164.0771 C.3     1  UNL1        0.0660
     21 C         144.4079  144.0981  165.0306 C.3     1  UNL1        0.0316
     22 C         142.1275  141.3192  167.7375 C.ar    1  UNL1        0.1388
     23 C         142.0865  139.8494  167.4408 C.ar    1  UNL1        0.0384
     24 C         142.8055  139.3059  166.2418 C.ar    1  UNL1        0.0222
     25 C         143.5655  140.2322  165.3395 C.ar    1  UNL1        0.0812
     26 N         144.2845  139.6888  164.1404 N.ar    1  UNL1       -0.2439
     27 C         145.0446  140.6150  163.2381 C.ar    1  UNL1        0.0985
     28 C         145.0858  142.0849  163.5348 C.ar    1  UNL1        0.0164
     29 C         144.3668  142.6284  164.7339 C.ar    1  UNL1       -0.0189
     30 C         143.6066  141.7020  165.6362 C.ar    1  UNL1        0.0168
     31 C         142.8876  142.2454  166.8352 C.ar    1  UNL1        0.0381
     32 C         142.1367  142.7343  169.9163 C.3     1  UNL1        0.2525
     33 O         141.4085  141.8626  168.9366 O.3     1  UNL1       -0.4714
@<TRIPOS>BOND
     1    32    33    1
     2    33    22    1
     3    22    23   ar
     4    23    24   ar
     5    24    25   ar
     6    25    26   ar
     7    26    27   ar
     8    27    28   ar
     9    28    29   ar
    10    29    21    1
    11    21    20    1
    12     1    20    1
    13     1     2    1
    14     2     3    1
    15     3     4    1
    16     4     7    1
    17     7     9    1
    18     9    10    1
    19    10    11   ar
    20    11    12   ar
    21    12    13   ar
    22    13    14   ar
    23    14    15   ar
    24    14    16    1
    25    16    17    1
    26    17    18    1
    27    18    19    1
    28     4     5    1
    29     5     6    1
    30    29    30   ar
    31    30    31   ar
    32    31    22   ar
    33    30    25   ar
    34     6     1    1
    35    15    10   ar
    36    19    13    1
    37     7     8    1
@<TRIPOS>MOLECULE
*****
 33 37 0 0 0
SMALL
GASTEIGER

@<TRIPOS>ATOM
      1 C         143.1895  138.7908  162.9654 C.3     1  UNL1        0.2355
      2 O         142.7111  139.4076  161.6845 O.3     1  UNL1       -0.3290
      3 C         141.3821  139.0125  161.1123 C.3     1  UNL1        0.1629
      4 C         140.5313  138.0006  161.8211 C.3     1  UNL1        0.1144
      5 C         141.0096  137.3838  163.1020 C.3     1  UNL1        0.1629
      6 O         142.3388  137.7790  163.6742 O.3     1  UNL1       -0.3290
      7 N         139.2022  137.6054  161.2489 N.3     1  UNL1       -0.2908
      8 H         139.1153  136.5970  161.3752 H       1  UNL1        0.1237
      9 C         137.9427  138.2191  161.7847 C.3     1  UNL1        0.0958
     10 C         138.0072  139.4859  162.5852 C.ar    1  UNL1       -0.0032
     11 C         138.1687  139.4241  164.0753 C.ar    1  UNL1        0.0004
     12 C         138.2332  140.6910  164.8758 C.ar    1  UNL1        0.0398
     13 C         138.1362  142.0196  164.1864 C.ar    1  UNL1        0.1724
     14 C         137.9747  142.0814  162.6964 C.ar    1  UNL1        0.1721
     15 C         137.9102  140.8145  161.8958 C.ar    1  UNL1        0.0371
     16 O         137.8777  143.4101  162.0070 O.3     1  UNL1       -0.4684
     17 C         137.9422  144.6769  162.8075 C.3     1  UNL1        0.2526
     18 C         138.1037  144.6151  164.2976 C.3     1  UNL1        0.2526
     19 O         138.2007  143.2865  164.9870 O.3     1  UNL1       -0.4684
     20 C         144.5185  139.1860  163.5376 C.3     1  UNL1        0.0660
     21 C         144.5906  140.2184  164.6234 C.3     1  UNL1        0.0316
     22 C         141.6751  140.5798  168.0320 C.ar    1  UNL1        0.1388
     23 C         140.6892  141.7099  168.0590 C.ar    1  UNL1        0.0384
     24 C         140.6751  142.7196  166.9498 C.ar    1  UNL1        0.0222
     25 C         141.6469  142.5992  165.8136 C.ar    1  UNL1        0.0812
     26 N         141.6328  143.6088  164.7044 N.ar    1  UNL1       -0.2439
     27 C         142.6047  143.4884  163.5682 C.ar    1  UNL1        0.0985
     28 C         143.5907  142.3582  163.5412 C.ar    1  UNL1        0.0164
     29 C         143.6047  141.3486  164.6504 C.ar    1  UNL1       -0.0189
     30 C         142.6328  141.4690  165.7866 C.ar    1  UNL1        0.0168
     31 C         142.6469  140.4594  166.8958 C.ar    1  UNL1        0.0381
     32 C         140.8412  139.7831  170.3601 C.3     1  UNL1        0.2525
     33 O         141.6892  139.5701  169.1412 O.3     1  UNL1       -0.4714
@<TRIPOS>BOND
     1    32    33    1
     2    33    22    1
     3    22    23   ar
     4    23    24   ar
     5    24    25   ar
     6    25    26   ar
     7    26    27   ar
     8    27    28   ar
     9    28    29   ar
    10    29    21    1
    11    21    20    1
    12     1    20    1
    13     1     2    1
    14     2     3    1
    15     3     4    1
    16     4     7    1
    17     7     9    1
    18     9    10    1
    19    10    11   ar
    20    11    12   ar
    21    12    13   ar
    22    13    14   ar
    23    14    15   ar
    24    14    16    1
    25    16    17    1
    26    17    18    1
    27    18    19    1
    28     4     5    1
    29     5     6    1
    30    29    30   ar
    31    30    31   ar
    32    31    22   ar
    33    30    25   ar
    34     6     1    1
    35    15    10   ar
    36    19    13    1
    37     7     8    1
@<TRIPOS>MOLECULE
*****
 33 37 0 0 0
SMALL
GASTEIGER

@<TRIPOS>ATOM
      1 C         139.4718  137.8292  164.5446 C.3     1  UNL1        0.2355
      2 O         139.1019  137.9682  163.0976 O.3     1  UNL1       -0.3290
      3 C         140.1612  137.8712  162.0401 C.3     1  UNL1        0.1629
      4 C         141.5904  137.6351  162.4295 C.3     1  UNL1        0.1144
      5 C         141.9603  137.4961  163.8765 C.3     1  UNL1        0.1629
      6 O         140.9009  137.5932  164.9341 O.3     1  UNL1       -0.3290
      7 N         142.6497  137.5381  161.3720 N.3     1  UNL1       -0.2908
      8 H         142.2134  137.8133  160.4920 H       1  UNL1        0.1237
      9 C         143.9116  138.3391  161.4987 C.3     1  UNL1        0.0958
     10 C         143.8449  139.8350  161.5851 C.ar    1  UNL1       -0.0032
     11 C         143.5748  140.6463  160.3526 C.ar    1  UNL1        0.0004
     12 C         143.5080  142.1423  160.4391 C.ar    1  UNL1        0.0398
     13 C         143.7114  142.8271  161.7580 C.ar    1  UNL1        0.1724
     14 C         143.9815  142.0160  162.9905 C.ar    1  UNL1        0.1721
     15 C         144.0482  140.5199  162.9041 C.ar    1  UNL1        0.0371
     16 O         144.1849  142.7008  164.3095 O.3     1  UNL1       -0.4684
     17 C         144.1181  144.1968  164.3959 C.3     1  UNL1        0.2526
     18 C         143.8480  145.0080  163.1634 C.3     1  UNL1        0.2526
     19 O         143.6446  144.3232  161.8445 O.3     1  UNL1       -0.4684
     20 C         138.4125  137.9263  165.6022 C.3     1  UNL1        0.0660
     21 C         138.3412  139.1381  166.4834 C.3     1  UNL1        0.0316
     22 C         142.2218  140.1692  168.5149 C.ar    1  UNL1        0.1388
     23 C         142.9593  141.4184  168.1334 C.ar    1  UNL1        0.0384
     24 C         142.4032  142.3239  167.0747 C.ar    1  UNL1        0.0222
     25 C         141.1097  141.9802  166.3975 C.ar    1  UNL1        0.0812
     26 N         140.5537  142.8857  165.3388 N.ar    1  UNL1       -0.2439
     27 C         139.2602  142.5420  164.6616 C.ar    1  UNL1        0.0985
     28 C         138.5226  141.2928  165.0431 C.ar    1  UNL1        0.0164
     29 C         139.0786  140.3873  166.1018 C.ar    1  UNL1       -0.0189
     30 C         140.3722  140.7310  166.7790 C.ar    1  UNL1        0.0168
     31 C         140.9283  139.8255  167.8378 C.ar    1  UNL1        0.0381
     32 C         143.1972  139.8280  170.8987 C.3     1  UNL1        0.2525
     33 O         142.7778  139.2637  169.5737 O.3     1  UNL1       -0.4714
@<TRIPOS>BOND
     1    32    33    1
     2    33    22    1
     3    22    23   ar
     4    23    24   ar
     5    24    25   ar
     6    25    26   ar
     7    26    27   ar
     8    27    28   ar
     9    28    29   ar
    10    29    21    1
    11    21    20    1
    12     1    20    1
    13     1     2    1
    14     2     3    1
    15     3     4    1
    16     4     7    1
    17     7     9    1
    18     9    10    1
    19    10    11   ar
    20    11    12   ar
    21    12    13   ar
    22    13    14   ar
    23    14    15   ar
    24    14    16    1
    25    16    17    1
    26    17    18    1
    27    18    19    1
    28     4     5    1
    29     5     6    1
    30    29    30   ar
    31    30    31   ar
    32    31    22   ar
    33    30    25   ar
    34     6     1    1
    35    15    10   ar
    36    19    13    1
    37     7     8    1
@<TRIPOS>MOLECULE
*****
 33 37 0 0 0
SMALL
GASTEIGER

@<TRIPOS>ATOM
      1 C         139.4552  137.6750  164.6630 C.3     1  UNL1        0.2355
      2 O         138.9871  137.8351  163.2469 O.3     1  UNL1       -0.3290
      3 C         139.9794  137.8162  162.1223 C.3     1  UNL1        0.1629
      4 C         141.4400  137.6372  162.4137 C.3     1  UNL1        0.1144
      5 C         141.9081  137.4771  163.8298 C.3     1  UNL1        0.1629
      6 O         140.9157  137.4960  164.9544 O.3     1  UNL1       -0.3290
      7 N         142.4323  137.6183  161.2891 N.3     1  UNL1       -0.2908
      8 H         141.9410  137.9458  160.4573 H       1  UNL1        0.1237
      9 C         143.6955  138.4209  161.3899 C.3     1  UNL1        0.0958
     10 C         143.6269  139.9117  161.5406 C.ar    1  UNL1       -0.0032
     11 C         143.2299  140.7661  160.3733 C.ar    1  UNL1        0.0004
     12 C         143.1613  142.2569  160.5241 C.ar    1  UNL1        0.0398
     13 C         143.4896  142.8934  161.8421 C.ar    1  UNL1        0.1724
     14 C         143.8865  142.0391  163.0093 C.ar    1  UNL1        0.1721
     15 C         143.9552  140.5482  162.8586 C.ar    1  UNL1        0.0371
     16 O         144.2149  142.6755  164.3273 O.3     1  UNL1       -0.4684
     17 C         144.1462  144.1663  164.4781 C.3     1  UNL1        0.2526
     18 C         143.7493  145.0208  163.3108 C.3     1  UNL1        0.2526
     19 O         143.4209  144.3843  161.9928 O.3     1  UNL1       -0.4684
     20 C         138.4629  137.6938  165.7876 C.3     1  UNL1        0.0660
     21 C         137.9575  139.0020  166.3201 C.3     1  UNL1        0.0316
     22 C         139.3833  142.2913  163.6004 C.ar    1  UNL1        0.1388
     23 C         140.3512  143.3183  164.1089 C.ar    1  UNL1        0.0384
     24 C         140.8437  143.2488  165.5240 C.ar    1  UNL1        0.0222
     25 C         140.3685  142.1523  166.4306 C.ar    1  UNL1        0.0812
     26 N         140.8610  142.0828  167.8457 N.ar    1  UNL1       -0.2439
     27 C         140.3858  140.9864  168.7523 C.ar    1  UNL1        0.0985
     28 C         139.4179  139.9594  168.2438 C.ar    1  UNL1        0.0164
     29 C         138.9253  140.0289  166.8287 C.ar    1  UNL1       -0.0189
     30 C         139.4006  141.1254  165.9221 C.ar    1  UNL1        0.0168
     31 C         138.9081  141.1949  164.5070 C.ar    1  UNL1        0.0381
     32 C         137.8843  141.3642  161.6917 C.3     1  UNL1        0.2525
     33 O         138.8908  142.3608  162.1853 O.3     1  UNL1       -0.4714
@<TRIPOS>BOND
     1    32    33    1
     2    33    22    1
     3    22    23   ar
     4    23    24   ar
     5    24    25   ar
     6    25    26   ar
     7    26    27   ar
     8    27    28   ar
     9    28    29   ar
    10    29    21    1
    11    21    20    1
    12     1    20    1
    13     1     2    1
    14     2     3    1
    15     3     4    1
    16     4     7    1
    17     7     9    1
    18     9    10    1
    19    10    11   ar
    20    11    12   ar
    21    12    13   ar
    22    13    14   ar
    23    14    15   ar
    24    14    16    1
    25    16    17    1
    26    17    18    1
    27    18    19    1
    28     4     5    1
    29     5     6    1
    30    29    30   ar
    31    30    31   ar
    32    31    22   ar
    33    30    25   ar
    34     6     1    1
    35    15    10   ar
    36    19    13    1
    37     7     8    1
