@<TRIPOS>MOLECULE
*****
 34 38 0 0 0
SMALL
GASTEIGER

@<TRIPOS>ATOM
      1 N         142.6706  143.7988  161.5409 N.3     1  UNL1       -0.2712
      2 C         144.0637  143.3310  161.2406 C.3     1  UNL1        0.0738
      3 C         144.5155  142.4613  162.3761 C.3     1  UNL1        0.0372
      4 C         145.6557  141.6346  162.8924 C.3     1  UNL1        0.0245
      5 C         145.2465  141.0540  164.2136 C.3     1  UNL1        0.0909
      6 N         143.8533  141.5219  164.5139 N.pl3   1  UNL1       -0.3077
      7 C         143.4015  142.3916  163.3783 C.3     1  UNL1        0.0901
      8 C         142.2613  143.2183  162.8621 C.3     1  UNL1        0.0921
      9 C         143.0525  141.1801  165.7353 C.ar    1  UNL1        0.0478
     10 C         142.3339  139.8660  165.8175 C.ar    1  UNL1        0.0145
     11 C         141.5331  139.5242  167.0389 C.ar    1  UNL1        0.0051
     12 C         141.4509  140.4965  168.1782 C.ar    1  UNL1        0.0715
     13 C         142.1695  141.8106  168.0960 C.ar    1  UNL1        0.0051
     14 C         142.9703  142.1524  166.8746 C.ar    1  UNL1        0.0145
     15 C         140.6501  140.1546  169.3996 C.3     1  UNL1        0.4186
     16 F         139.8493  139.8128  170.6210 F       1  UNL1       -0.1659
     17 F         141.9109  139.7827  170.1221 F       1  UNL1       -0.1659
     18 F         139.3893  140.5266  168.6771 F       1  UNL1       -0.1659
     19 C         141.8336  144.6907  160.6726 C.3     1  UNL1        0.0731
     20 C         140.3538  144.7840  160.8992 C.3     1  UNL1        0.0294
     21 C         139.8171  145.6417  162.0067 C.3     1  UNL1        0.0666
     22 S         138.7932  145.0898  162.9537 S.3     1  UNL1       -0.0756
     23 C         139.6529  142.8179  165.1329 C.3     1  UNL1        0.1340
     24 N         138.8250  142.5912  163.9028 N.ar    1  UNL1       -0.2884
     25 C         138.4298  143.6354  162.9011 C.ar    1  UNL1        0.1932
     26 N         137.6075  142.9700  161.8376 N.ar    1  UNL1       -0.1221
     27 N         137.4944  141.5145  162.1820 N.ar    1  UNL1       -0.1282
     28 C         138.2469  141.2803  163.4584 C.ar    1  UNL1        0.1669
     29 C         138.3951  139.9660  164.1660 C.ar    1  UNL1        0.0390
     30 C         138.0076  139.8437  165.6099 C.ar    1  UNL1        0.0237
     31 C         138.1558  138.5294  166.3175 C.ar    1  UNL1        0.0990
     32 N         138.6917  137.3375  165.5811 N.ar    1  UNL1       -0.2423
     33 C         139.0793  137.4598  164.1373 C.ar    1  UNL1        0.0990
     34 C         138.9310  138.7741  163.4297 C.ar    1  UNL1        0.0237
@<TRIPOS>BOND
     1    23    24    1
     2    24    25   ar
     3    25    22    1
     4    22    21    1
     5    21    20    1
     6    20    19    1
     7    19     1    1
     8     1     2    1
     9     2     3    1
    10     3     4    1
    11     4     5    1
    12     5     6    1
    13     6     9    1
    14     9    10   ar
    15    10    11   ar
    16    11    12   ar
    17    12    15    1
    18    15    16    1
    19    15    17    1
    20    15    18    1
    21    12    13   ar
    22    13    14   ar
    23     6     7    1
    24     7     8    1
    25    25    26   ar
    26    26    27   ar
    27    27    28   ar
    28    28    29    1
    29    29    30   ar
    30    30    31   ar
    31    31    32   ar
    32    32    33   ar
    33    33    34   ar
    34    28    24   ar
    35    34    29   ar
    36     8     1    1
    37     7     3    1
    38    14     9   ar
@<TRIPOS>MOLECULE
*****
 34 38 0 0 0
SMALL
GASTEIGER

@<TRIPOS>ATOM
      1 N         141.7442  138.0700  162.7930 N.3     1  UNL1       -0.2712
      2 C         140.3481  137.5364  162.9197 C.3     1  UNL1        0.0738
      3 C         139.7709  138.0491  164.2057 C.3     1  UNL1        0.0372
      4 C         138.5513  138.0362  165.0789 C.3     1  UNL1        0.0245
      5 C         138.8369  138.8787  166.2867 C.3     1  UNL1        0.0909
      6 N         140.2331  139.4123  166.1599 N.pl3   1  UNL1       -0.3077
      7 C         140.8103  138.8996  164.8738 C.3     1  UNL1        0.0901
      8 C         142.0299  138.9126  164.0007 C.3     1  UNL1        0.0921
      9 C         140.9297  140.3024  167.1461 C.ar    1  UNL1        0.0478
     10 C         140.4923  141.7279  167.3092 C.ar    1  UNL1        0.0145
     11 C         141.1889  142.6179  168.2954 C.ar    1  UNL1        0.0051
     12 C         142.3228  142.0825  169.1184 C.ar    1  UNL1        0.0715
     13 C         142.7602  140.6569  168.9553 C.ar    1  UNL1        0.0051
     14 C         142.0636  139.7669  167.9692 C.ar    1  UNL1        0.0145
     15 C         143.0194  142.9726  170.1046 C.3     1  UNL1        0.4186
     16 F         143.7160  143.8626  171.0908 F       1  UNL1       -0.1659
     17 F         144.2661  142.1499  169.9666 F       1  UNL1       -0.1659
     18 F         141.7728  143.7953  170.2427 F       1  UNL1       -0.1659
     19 C         142.6889  137.8073  161.6578 C.3     1  UNL1        0.0731
     20 C         142.8261  138.8084  160.5492 C.3     1  UNL1        0.0294
     21 C         144.0574  139.6600  160.4557 C.3     1  UNL1        0.0666
     22 S         143.9664  141.1385  160.6913 S.3     1  UNL1       -0.0756
     23 C         140.8276  142.0097  160.8871 C.3     1  UNL1        0.1340
     24 N         141.8284  142.0622  162.0031 N.ar    1  UNL1       -0.2884
     25 C         143.2712  141.6618  161.9132 C.ar    1  UNL1        0.1932
     26 N         143.8967  141.8765  163.2595 N.ar    1  UNL1       -0.1221
     27 N         142.8405  142.4096  164.1816 N.ar    1  UNL1       -0.1282
     28 C         141.5622  142.5244  163.4052 C.ar    1  UNL1        0.1669
     29 C         140.2484  143.0152  163.9373 C.ar    1  UNL1        0.0390
     30 C         140.1281  144.4146  164.4638 C.ar    1  UNL1        0.0237
     31 C         138.8144  144.9053  164.9959 C.ar    1  UNL1        0.0990
     32 N         137.6209  143.9966  165.0015 N.ar    1  UNL1       -0.2423
     33 C         137.7412  142.5973  164.4749 C.ar    1  UNL1        0.0990
     34 C         139.0550  142.1065  163.9428 C.ar    1  UNL1        0.0237
@<TRIPOS>BOND
     1    23    24    1
     2    24    25   ar
     3    25    22    1
     4    22    21    1
     5    21    20    1
     6    20    19    1
     7    19     1    1
     8     1     2    1
     9     2     3    1
    10     3     4    1
    11     4     5    1
    12     5     6    1
    13     6     9    1
    14     9    10   ar
    15    10    11   ar
    16    11    12   ar
    17    12    15    1
    18    15    16    1
    19    15    17    1
    20    15    18    1
    21    12    13   ar
    22    13    14   ar
    23     6     7    1
    24     7     8    1
    25    25    26   ar
    26    26    27   ar
    27    27    28   ar
    28    28    29    1
    29    29    30   ar
    30    30    31   ar
    31    31    32   ar
    32    32    33   ar
    33    33    34   ar
    34    28    24   ar
    35    34    29   ar
    36     8     1    1
    37     7     3    1
    38    14     9   ar
@<TRIPOS>MOLECULE
*****
 34 38 0 0 0
SMALL
GASTEIGER

@<TRIPOS>ATOM
      1 N         140.9469  143.4897  160.0455 N.3     1  UNL1       -0.2712
      2 C         141.3605  144.7346  160.7730 C.3     1  UNL1        0.0738
      3 C         141.1114  144.5205  162.2366 C.3     1  UNL1        0.0372
      4 C         141.2131  145.1575  163.5908 C.3     1  UNL1        0.0245
      5 C         140.7085  144.1741  164.6048 C.3     1  UNL1        0.0909
      6 N         140.2949  142.9292  163.8773 N.pl3   1  UNL1       -0.3077
      7 C         140.5439  143.1433  162.4137 C.3     1  UNL1        0.0901
      8 C         140.4422  142.5062  161.0595 C.3     1  UNL1        0.0921
      9 C         139.7312  141.6882  164.5034 C.ar    1  UNL1        0.0478
     10 C         138.7164  140.8688  163.7626 C.ar    1  UNL1        0.0145
     11 C         138.1528  139.6278  164.3888 C.ar    1  UNL1        0.0051
     12 C         138.6039  139.2061  165.7558 C.ar    1  UNL1        0.0715
     13 C         139.6187  140.0255  166.4967 C.ar    1  UNL1        0.0051
     14 C         140.1823  141.2665  165.8705 C.ar    1  UNL1        0.0145
     15 C         138.0402  137.9650  166.3820 C.3     1  UNL1        0.4186
     16 F         137.4765  136.7240  167.0081 F       1  UNL1       -0.1659
     17 F         138.8465  137.1227  165.4383 F       1  UNL1       -0.1659
     18 F         137.2339  138.8074  167.3256 F       1  UNL1       -0.1659
     19 C         141.0244  143.2673  158.5641 C.3     1  UNL1        0.0731
     20 C         142.1515  142.4654  157.9840 C.3     1  UNL1        0.0294
     21 C         143.5263  143.0589  157.8952 C.3     1  UNL1        0.0666
     22 S         144.6204  142.5538  158.7884 S.3     1  UNL1       -0.0756
     23 C         143.6616  139.7134  160.0777 C.3     1  UNL1        0.1340
     24 N         143.9028  140.9873  160.8320 N.ar    1  UNL1       -0.2884
     25 C         144.3435  142.2929  160.2394 C.ar    1  UNL1        0.1932
     26 N         144.4588  143.2918  161.3525 N.ar    1  UNL1       -0.1221
     27 N         144.0893  142.6035  162.6330 N.ar    1  UNL1       -0.1282
     28 C         143.7457  141.1792  162.3114 C.ar    1  UNL1        0.1669
     29 C         143.3198  140.1310  163.2962 C.ar    1  UNL1        0.0390
     30 C         142.0953  139.3062  163.0310 C.ar    1  UNL1        0.0237
     31 C         141.6694  138.2580  164.0158 C.ar    1  UNL1        0.0990
     32 N         142.4680  138.0346  165.2658 N.ar    1  UNL1       -0.2423
     33 C         143.6925  138.8595  165.5310 C.ar    1  UNL1        0.0990
     34 C         144.1183  139.9077  164.5461 C.ar    1  UNL1        0.0237
@<TRIPOS>BOND
     1    23    24    1
     2    24    25   ar
     3    25    22    1
     4    22    21    1
     5    21    20    1
     6    20    19    1
     7    19     1    1
     8     1     2    1
     9     2     3    1
    10     3     4    1
    11     4     5    1
    12     5     6    1
    13     6     9    1
    14     9    10   ar
    15    10    11   ar
    16    11    12   ar
    17    12    15    1
    18    15    16    1
    19    15    17    1
    20    15    18    1
    21    12    13   ar
    22    13    14   ar
    23     6     7    1
    24     7     8    1
    25    25    26   ar
    26    26    27   ar
    27    27    28   ar
    28    28    29    1
    29    29    30   ar
    30    30    31   ar
    31    31    32   ar
    32    32    33   ar
    33    33    34   ar
    34    28    24   ar
    35    34    29   ar
    36     8     1    1
    37     7     3    1
    38    14     9   ar
@<TRIPOS>MOLECULE
*****
 34 38 0 0 0
SMALL
GASTEIGER

@<TRIPOS>ATOM
      1 N         140.9561  144.8800  161.0182 N.3     1  UNL1       -0.2712
      2 C         139.8794  145.5925  161.7818 C.3     1  UNL1        0.0738
      3 C         139.7387  144.9243  163.1173 C.3     1  UNL1        0.0372
      4 C         138.9863  144.9516  164.4147 C.3     1  UNL1        0.0245
      5 C         139.5109  143.8430  165.2783 C.3     1  UNL1        0.0909
      6 N         140.5876  143.1304  164.5146 N.pl3   1  UNL1       -0.3077
      7 C         140.7283  143.7987  163.1791 C.3     1  UNL1        0.0901
      8 C         141.4807  143.7713  161.8817 C.3     1  UNL1        0.0921
      9 C         141.3836  141.9558  165.0010 C.ar    1  UNL1        0.0478
     10 C         141.7807  141.8650  166.4446 C.ar    1  UNL1        0.0145
     11 C         142.5768  140.6904  166.9311 C.ar    1  UNL1        0.0051
     12 C         142.9758  139.6067  165.9739 C.ar    1  UNL1        0.0715
     13 C         142.5788  139.6975  164.5302 C.ar    1  UNL1        0.0051
     14 C         141.7827  140.8721  164.0438 C.ar    1  UNL1        0.0145
     15 C         143.7719  138.4321  166.4604 C.3     1  UNL1        0.4186
     16 F         144.5680  137.2575  166.9468 F       1  UNL1       -0.1659
     17 F         143.0079  138.4489  167.7511 F       1  UNL1       -0.1659
     18 F         144.5359  138.4153  165.1696 F       1  UNL1       -0.1659
     19 C         141.4256  145.2169  159.6340 C.3     1  UNL1        0.0731
     20 C         141.1277  144.2885  158.4942 C.3     1  UNL1        0.0294
     21 C         140.7328  142.8674  158.7678 C.3     1  UNL1        0.0666
     22 S         139.2849  142.5081  158.9235 S.3     1  UNL1       -0.0756
     23 C         140.1374  139.9129  160.7089 C.3     1  UNL1        0.1340
     24 N         139.1339  140.9583  161.0961 N.ar    1  UNL1       -0.2884
     25 C         138.7420  142.1512  160.2755 C.ar    1  UNL1        0.1932
     26 N         137.7119  142.9246  161.0442 N.ar    1  UNL1       -0.1221
     27 N         137.4671  142.2097  162.3399 N.ar    1  UNL1       -0.1282
     28 C         138.3459  140.9944  162.3721 C.ar    1  UNL1        0.1669
     29 C         138.4232  139.9915  163.4848 C.ar    1  UNL1        0.0390
     30 C         138.7880  138.5673  163.1868 C.ar    1  UNL1        0.0237
     31 C         138.8653  137.5644  164.2995 C.ar    1  UNL1        0.0990
     32 N         138.5778  137.9857  165.7102 N.ar    1  UNL1       -0.2423
     33 C         138.2131  139.4098  166.0082 C.ar    1  UNL1        0.0990
     34 C         138.1358  140.4127  164.8954 C.ar    1  UNL1        0.0237
@<TRIPOS>BOND
     1    23    24    1
     2    24    25   ar
     3    25    22    1
     4    22    21    1
     5    21    20    1
     6    20    19    1
     7    19     1    1
     8     1     2    1
     9     2     3    1
    10     3     4    1
    11     4     5    1
    12     5     6    1
    13     6     9    1
    14     9    10   ar
    15    10    11   ar
    16    11    12   ar
    17    12    15    1
    18    15    16    1
    19    15    17    1
    20    15    18    1
    21    12    13   ar
    22    13    14   ar
    23     6     7    1
    24     7     8    1
    25    25    26   ar
    26    26    27   ar
    27    27    28   ar
    28    28    29    1
    29    29    30   ar
    30    30    31   ar
    31    31    32   ar
    32    32    33   ar
    33    33    34   ar
    34    28    24   ar
    35    34    29   ar
    36     8     1    1
    37     7     3    1
    38    14     9   ar
@<TRIPOS>MOLECULE
*****
 34 38 0 0 0
SMALL
GASTEIGER

@<TRIPOS>ATOM
      1 N         141.7147  142.5249  159.8576 N.3     1  UNL1       -0.2712
      2 C         142.6175  141.5195  159.2063 C.3     1  UNL1        0.0738
      3 C         142.4852  140.2255  159.9533 C.3     1  UNL1        0.0372
      4 C         142.9615  138.8043  160.0124 C.3     1  UNL1        0.0245
      5 C         142.2713  138.1315  161.1618 C.3     1  UNL1        0.0909
      6 N         141.3685  139.1370  161.8131 N.pl3   1  UNL1       -0.3077
      7 C         141.5008  140.4311  161.0662 C.3     1  UNL1        0.0901
      8 C         141.0245  141.8523  161.0071 C.3     1  UNL1        0.0921
      9 C         140.4881  138.8915  163.0025 C.ar    1  UNL1        0.0478
     10 C         140.7056  137.6796  163.8592 C.ar    1  UNL1        0.0145
     11 C         139.8252  137.4340  165.0485 C.ar    1  UNL1        0.0051
     12 C         138.7273  138.4004  165.3812 C.ar    1  UNL1        0.0715
     13 C         138.5098  139.6124  164.5246 C.ar    1  UNL1        0.0051
     14 C         139.3902  139.8580  163.3352 C.ar    1  UNL1        0.0145
     15 C         137.8469  138.1549  166.5706 C.3     1  UNL1        0.4186
     16 F         136.9666  137.9093  167.7600 F       1  UNL1       -0.1659
     17 F         137.9023  139.6143  166.9129 F       1  UNL1       -0.1659
     18 F         137.7916  136.6955  166.2283 F       1  UNL1       -0.1659
     19 C         141.5338  143.9524  159.4339 C.3     1  UNL1        0.0731
     20 C         140.2864  144.6946  159.8119 C.3     1  UNL1        0.0294
     21 C         140.3179  145.6943  160.9298 C.3     1  UNL1        0.0666
     22 S         139.7217  145.3486  162.2621 S.3     1  UNL1       -0.0756
     23 C         138.5477  143.3212  164.5339 C.3     1  UNL1        0.1340
     24 N         139.9926  143.6611  164.3173 N.ar    1  UNL1       -0.2884
     25 C         140.5322  144.5930  163.2731 C.ar    1  UNL1        0.1932
     26 N         142.0246  144.6366  163.4173 N.ar    1  UNL1       -0.1221
     27 N         142.4074  143.7317  164.5507 N.ar    1  UNL1       -0.1282
     28 C         141.1515  143.1287  165.1070 C.ar    1  UNL1        0.1669
     29 C         141.0691  142.1630  166.2519 C.ar    1  UNL1        0.0390
     30 C         140.3956  142.5696  167.5290 C.ar    1  UNL1        0.0237
     31 C         140.3131  141.6039  168.6738 C.ar    1  UNL1        0.0990
     32 N         140.9044  140.2316  168.5414 N.ar    1  UNL1       -0.2423
     33 C         141.5779  139.8251  167.2643 C.ar    1  UNL1        0.0990
     34 C         141.6603  140.7909  166.1195 C.ar    1  UNL1        0.0237
@<TRIPOS>BOND
     1    23    24    1
     2    24    25   ar
     3    25    22    1
     4    22    21    1
     5    21    20    1
     6    20    19    1
     7    19     1    1
     8     1     2    1
     9     2     3    1
    10     3     4    1
    11     4     5    1
    12     5     6    1
    13     6     9    1
    14     9    10   ar
    15    10    11   ar
    16    11    12   ar
    17    12    15    1
    18    15    16    1
    19    15    17    1
    20    15    18    1
    21    12    13   ar
    22    13    14   ar
    23     6     7    1
    24     7     8    1
    25    25    26   ar
    26    26    27   ar
    27    27    28   ar
    28    28    29    1
    29    29    30   ar
    30    30    31   ar
    31    31    32   ar
    32    32    33   ar
    33    33    34   ar
    34    28    24   ar
    35    34    29   ar
    36     8     1    1
    37     7     3    1
    38    14     9   ar
@<TRIPOS>MOLECULE
*****
 34 38 0 0 0
SMALL
GASTEIGER

@<TRIPOS>ATOM
      1 N         140.6387  143.7707  162.2416 N.3     1  UNL1       -0.2712
      2 C         142.0694  144.2010  162.1080 C.3     1  UNL1        0.0738
      3 C         142.7902  143.8101  163.3641 C.3     1  UNL1        0.0372
      4 C         144.1199  143.8345  164.0578 C.3     1  UNL1        0.0245
      5 C         143.9565  143.1778  165.3965 C.3     1  UNL1        0.0909
      6 N         142.5256  142.7476  165.5301 N.pl3   1  UNL1       -0.3077
      7 C         141.8049  143.1384  164.2740 C.3     1  UNL1        0.0901
      8 C         140.4752  143.1140  163.5803 C.3     1  UNL1        0.0921
      9 C         141.9217  142.0492  166.7122 C.ar    1  UNL1        0.0478
     10 C         140.8955  142.7490  167.5531 C.ar    1  UNL1        0.0145
     11 C         140.2915  142.0506  168.7352 C.ar    1  UNL1        0.0051
     12 C         140.7138  140.6524  169.0766 C.ar    1  UNL1        0.0715
     13 C         141.7400  139.9524  168.2357 C.ar    1  UNL1        0.0051
     14 C         142.3440  140.6508  167.0535 C.ar    1  UNL1        0.0145
     15 C         140.1098  139.9540  170.2587 C.3     1  UNL1        0.4186
     16 F         139.5059  139.2556  171.4409 F       1  UNL1       -0.1659
     17 F         138.8906  140.8207  170.1479 F       1  UNL1       -0.1659
     18 F         141.3290  139.0872  170.3695 F       1  UNL1       -0.1659
     19 C         139.5606  143.9634  161.2166 C.3     1  UNL1        0.0731
     20 C         139.2760  142.8833  160.2154 C.3     1  UNL1        0.0294
     21 C         140.4068  142.1095  159.6049 C.3     1  UNL1        0.0666
     22 S         140.5889  140.6585  159.9387 S.3     1  UNL1       -0.0756
     23 C         138.0858  139.7569  161.8284 C.3     1  UNL1        0.1340
     24 N         139.5272  139.8096  162.2403 N.ar    1  UNL1       -0.2884
     25 C         140.6777  140.2240  161.3717 C.ar    1  UNL1        0.1932
     26 N         141.9327  140.1277  162.1876 N.ar    1  UNL1       -0.1221
     27 N         141.5578  139.6538  163.5605 N.ar    1  UNL1       -0.1282
     28 C         140.0711  139.4571  163.5931 C.ar    1  UNL1        0.1669
     29 C         139.2691  138.9901  164.7715 C.ar    1  UNL1        0.0390
     30 C         138.8687  137.5488  164.8825 C.ar    1  UNL1        0.0237
     31 C         138.0668  137.0817  166.0609 C.ar    1  UNL1        0.0990
     32 N         137.6652  138.0561  167.1284 N.ar    1  UNL1       -0.2423
     33 C         138.0656  139.4974  167.0175 C.ar    1  UNL1        0.0990
     34 C         138.8676  139.9644  165.8390 C.ar    1  UNL1        0.0237
@<TRIPOS>BOND
     1    23    24    1
     2    24    25   ar
     3    25    22    1
     4    22    21    1
     5    21    20    1
     6    20    19    1
     7    19     1    1
     8     1     2    1
     9     2     3    1
    10     3     4    1
    11     4     5    1
    12     5     6    1
    13     6     9    1
    14     9    10   ar
    15    10    11   ar
    16    11    12   ar
    17    12    15    1
    18    15    16    1
    19    15    17    1
    20    15    18    1
    21    12    13   ar
    22    13    14   ar
    23     6     7    1
    24     7     8    1
    25    25    26   ar
    26    26    27   ar
    27    27    28   ar
    28    28    29    1
    29    29    30   ar
    30    30    31   ar
    31    31    32   ar
    32    32    33   ar
    33    33    34   ar
    34    28    24   ar
    35    34    29   ar
    36     8     1    1
    37     7     3    1
    38    14     9   ar
@<TRIPOS>MOLECULE
*****
 34 38 0 0 0
SMALL
GASTEIGER

@<TRIPOS>ATOM
      1 N         141.8074  142.4805  159.5532 N.3     1  UNL1       -0.2712
      2 C         142.5187  141.3845  158.8164 C.3     1  UNL1        0.0738
      3 C         142.2989  140.1038  159.5657 C.3     1  UNL1        0.0372
      4 C         142.6027  138.6349  159.5734 C.3     1  UNL1        0.0245
      5 C         141.9434  138.0315  160.7781 C.3     1  UNL1        0.0909
      6 N         141.2320  139.1275  161.5149 N.pl3   1  UNL1       -0.3077
      7 C         141.4518  140.4082  160.7656 C.3     1  UNL1        0.0901
      8 C         141.1480  141.8771  160.7579 C.3     1  UNL1        0.0921
      9 C         140.4400  138.9704  162.7790 C.ar    1  UNL1        0.0478
     10 C         140.8773  137.9831  163.8202 C.ar    1  UNL1        0.0145
     11 C         140.0853  137.8259  165.0843 C.ar    1  UNL1        0.0051
     12 C         138.8561  138.6560  165.3073 C.ar    1  UNL1        0.0715
     13 C         138.4187  139.6434  164.2661 C.ar    1  UNL1        0.0051
     14 C         139.2107  139.8006  163.0020 C.ar    1  UNL1        0.0145
     15 C         138.0641  138.4989  166.5714 C.3     1  UNL1        0.4186
     16 F         137.2721  138.3417  167.8356 F       1  UNL1       -0.1659
     17 F         138.3877  139.9138  166.9501 F       1  UNL1       -0.1659
     18 F         137.7405  137.0840  166.1928 F       1  UNL1       -0.1659
     19 C         141.7632  143.9261  159.1553 C.3     1  UNL1        0.0731
     20 C         141.5609  144.9852  160.1980 C.3     1  UNL1        0.0294
     21 C         140.1815  145.4979  160.4887 C.3     1  UNL1        0.0666
     22 S         139.8216  145.9368  161.8771 S.3     1  UNL1       -0.0756
     23 C         142.0589  144.6735  163.8891 C.3     1  UNL1        0.1340
     24 N         140.5981  144.3335  163.8700 N.ar    1  UNL1       -0.2884
     25 C         139.5697  144.9142  162.9452 C.ar    1  UNL1        0.1932
     26 N         138.2452  144.2928  163.2760 N.ar    1  UNL1       -0.1221
     27 N         138.4549  143.3280  164.4052 N.ar    1  UNL1       -0.1282
     28 C         139.9091  143.3531  164.7724 C.ar    1  UNL1        0.1669
     29 C         140.5600  142.5406  165.8523 C.ar    1  UNL1        0.0390
     30 C         140.3013  142.8647  167.2938 C.ar    1  UNL1        0.0237
     31 C         140.9521  142.0521  168.3737 C.ar    1  UNL1        0.0990
     32 N         141.8618  140.9155  168.0120 N.ar    1  UNL1       -0.2423
     33 C         142.1205  140.5915  166.5704 C.ar    1  UNL1        0.0990
     34 C         141.4696  141.4041  165.4906 C.ar    1  UNL1        0.0237
@<TRIPOS>BOND
     1    23    24    1
     2    24    25   ar
     3    25    22    1
     4    22    21    1
     5    21    20    1
     6    20    19    1
     7    19     1    1
     8     1     2    1
     9     2     3    1
    10     3     4    1
    11     4     5    1
    12     5     6    1
    13     6     9    1
    14     9    10   ar
    15    10    11   ar
    16    11    12   ar
    17    12    15    1
    18    15    16    1
    19    15    17    1
    20    15    18    1
    21    12    13   ar
    22    13    14   ar
    23     6     7    1
    24     7     8    1
    25    25    26   ar
    26    26    27   ar
    27    27    28   ar
    28    28    29    1
    29    29    30   ar
    30    30    31   ar
    31    31    32   ar
    32    32    33   ar
    33    33    34   ar
    34    28    24   ar
    35    34    29   ar
    36     8     1    1
    37     7     3    1
    38    14     9   ar
@<TRIPOS>MOLECULE
*****
 34 38 0 0 0
SMALL
GASTEIGER

@<TRIPOS>ATOM
      1 N         142.3507  138.0816  162.6761 N.3     1  UNL1       -0.2712
      2 C         140.9697  137.4968  162.7049 C.3     1  UNL1        0.0738
      3 C         140.2902  137.9743  163.9540 C.3     1  UNL1        0.0372
      4 C         139.0167  137.9079  164.7438 C.3     1  UNL1        0.0245
      5 C         139.1905  138.7468  165.9751 C.3     1  UNL1        0.0909
      6 N         140.5716  139.3316  165.9462 N.pl3   1  UNL1       -0.3077
      7 C         141.2512  138.8542  164.6972 C.3     1  UNL1        0.0901
      8 C         142.5247  138.9205  163.9074 C.3     1  UNL1        0.0921
      9 C         141.1683  140.2353  166.9842 C.ar    1  UNL1        0.0478
     10 C         140.5921  140.2704  168.3687 C.ar    1  UNL1        0.0145
     11 C         141.1888  141.1740  169.4067 C.ar    1  UNL1        0.0051
     12 C         142.3616  142.0425  169.0602 C.ar    1  UNL1        0.0715
     13 C         142.9379  142.0074  167.6757 C.ar    1  UNL1        0.0051
     14 C         142.3412  141.1038  166.6377 C.ar    1  UNL1        0.0145
     15 C         142.9583  142.9461  170.0983 C.3     1  UNL1        0.4186
     16 F         143.5549  143.8497  171.1363 F       1  UNL1       -0.1659
     17 F         141.6607  143.6924  170.1945 F       1  UNL1       -0.1659
     18 F         144.2559  142.1999  170.0020 F       1  UNL1       -0.1659
     19 C         143.3776  137.8654  161.6042 C.3     1  UNL1        0.0731
     20 C         142.9461  137.4981  160.2154 C.3     1  UNL1        0.0294
     21 C         142.8812  138.5494  159.1474 C.3     1  UNL1        0.0666
     22 S         141.5511  139.0497  158.6672 S.3     1  UNL1       -0.0756
     23 C         141.7884  141.6878  160.5735 C.3     1  UNL1        0.1340
     24 N         140.6339  140.7309  160.5319 N.ar    1  UNL1       -0.2884
     25 C         140.5249  139.5184  159.6557 C.ar    1  UNL1        0.1932
     26 N         139.2094  138.8567  159.9415 N.ar    1  UNL1       -0.1221
     27 N         138.5054  139.6604  160.9944 N.ar    1  UNL1       -0.1282
     28 C         139.3858  140.8187  161.3593 C.ar    1  UNL1        0.1669
     29 C         139.0730  141.8787  162.3735 C.ar    1  UNL1        0.0390
     30 C         139.8043  141.9031  163.6829 C.ar    1  UNL1        0.0237
     31 C         139.4915  142.9630  164.6971 C.ar    1  UNL1        0.0990
     32 N         138.4473  143.9987  164.4018 N.ar    1  UNL1       -0.2423
     33 C         137.7160  143.9744  163.0924 C.ar    1  UNL1        0.0990
     34 C         138.0288  142.9144  162.0782 C.ar    1  UNL1        0.0237
@<TRIPOS>BOND
     1    23    24    1
     2    24    25   ar
     3    25    22    1
     4    22    21    1
     5    21    20    1
     6    20    19    1
     7    19     1    1
     8     1     2    1
     9     2     3    1
    10     3     4    1
    11     4     5    1
    12     5     6    1
    13     6     9    1
    14     9    10   ar
    15    10    11   ar
    16    11    12   ar
    17    12    15    1
    18    15    16    1
    19    15    17    1
    20    15    18    1
    21    12    13   ar
    22    13    14   ar
    23     6     7    1
    24     7     8    1
    25    25    26   ar
    26    26    27   ar
    27    27    28   ar
    28    28    29    1
    29    29    30   ar
    30    30    31   ar
    31    31    32   ar
    32    32    33   ar
    33    33    34   ar
    34    28    24   ar
    35    34    29   ar
    36     8     1    1
    37     7     3    1
    38    14     9   ar
@<TRIPOS>MOLECULE
*****
 34 38 0 0 0
SMALL
GASTEIGER

@<TRIPOS>ATOM
      1 N         141.4399  143.0890  159.5226 N.3     1  UNL1       -0.2712
      2 C         142.0905  142.2515  158.4618 C.3     1  UNL1        0.0738
      3 C         142.7203  141.0650  159.1295 C.3     1  UNL1        0.0372
      4 C         143.5116  139.8141  158.8865 C.3     1  UNL1        0.0245
      5 C         143.7392  139.1452  160.2097 C.3     1  UNL1        0.0909
      6 N         143.0886  139.9828  161.2705 N.pl3   1  UNL1       -0.3077
      7 C         142.4589  141.1693  160.6028 C.3     1  UNL1        0.0901
      8 C         141.6676  142.4202  160.8458 C.3     1  UNL1        0.0921
      9 C         143.0708  139.6860  162.7407 C.ar    1  UNL1        0.0478
     10 C         142.3783  138.4565  163.2493 C.ar    1  UNL1        0.0145
     11 C         142.3605  138.1597  164.7195 C.ar    1  UNL1        0.0051
     12 C         143.0353  139.0923  165.6811 C.ar    1  UNL1        0.0715
     13 C         143.7280  140.3219  165.1726 C.ar    1  UNL1        0.0051
     14 C         143.7457  140.6187  163.7023 C.ar    1  UNL1        0.0145
     15 C         143.0176  138.7955  167.1514 C.3     1  UNL1        0.4186
     16 F         142.9998  138.4987  168.6216 F       1  UNL1       -0.1659
     17 F         144.1576  137.8374  166.9717 F       1  UNL1       -0.1659
     18 F         141.8775  139.7537  167.3311 F       1  UNL1       -0.1659
     19 C         140.6928  144.3704  159.2994 C.3     1  UNL1        0.0731
     20 C         140.8163  145.4924  160.2873 C.3     1  UNL1        0.0294
     21 C         139.6839  145.7959  161.2230 C.3     1  UNL1        0.0666
     22 S         139.6088  145.1123  162.5561 S.3     1  UNL1       -0.0756
     23 C         140.6137  142.6109  164.3953 C.3     1  UNL1        0.1340
     24 N         139.3930  142.6300  163.5238 N.ar    1  UNL1       -0.2884
     25 C         138.9310  143.7797  162.6784 C.ar    1  UNL1        0.1932
     26 N         137.6724  143.3630  161.9768 N.ar    1  UNL1       -0.1221
     27 N         137.3565  141.9557  162.3885 N.ar    1  UNL1       -0.1282
     28 C         138.4198  141.5025  163.3446 C.ar    1  UNL1        0.1669
     29 C         138.4965  140.1582  164.0055 C.ar    1  UNL1        0.0390
     30 C         138.7512  138.9308  163.1817 C.ar    1  UNL1        0.0237
     31 C         138.8278  137.5865  163.8426 C.ar    1  UNL1        0.0990
     32 N         138.6498  137.4695  165.3274 N.ar    1  UNL1       -0.2423
     33 C         138.3952  138.6969  166.1513 C.ar    1  UNL1        0.0990
     34 C         138.3185  140.0412  165.4903 C.ar    1  UNL1        0.0237
@<TRIPOS>BOND
     1    23    24    1
     2    24    25   ar
     3    25    22    1
     4    22    21    1
     5    21    20    1
     6    20    19    1
     7    19     1    1
     8     1     2    1
     9     2     3    1
    10     3     4    1
    11     4     5    1
    12     5     6    1
    13     6     9    1
    14     9    10   ar
    15    10    11   ar
    16    11    12   ar
    17    12    15    1
    18    15    16    1
    19    15    17    1
    20    15    18    1
    21    12    13   ar
    22    13    14   ar
    23     6     7    1
    24     7     8    1
    25    25    26   ar
    26    26    27   ar
    27    27    28   ar
    28    28    29    1
    29    29    30   ar
    30    30    31   ar
    31    31    32   ar
    32    32    33   ar
    33    33    34   ar
    34    28    24   ar
    35    34    29   ar
    36     8     1    1
    37     7     3    1
    38    14     9   ar
