@<TRIPOS>MOLECULE
*****
 38 41 0 0 0
SMALL
GASTEIGER

@<TRIPOS>ATOM
      1 N         141.9091  139.7248  165.1527 N.am    1  UNL1       -0.2692
      2 C         141.1311  138.7897  164.2751 C.2     1  UNL1        0.2505
      3 O         141.5814  137.3589  164.2881 O.2     1  UNL1       -0.2699
      4 C         139.9624  139.0960  163.3861 C.ar    1  UNL1        0.0673
      5 C         139.4768  137.8671  162.6763 C.ar    1  UNL1        0.0058
      6 C         138.3118  137.9553  161.7356 C.ar    1  UNL1        0.0002
      7 C         137.6323  139.2725  161.5047 C.ar    1  UNL1        0.0013
      8 C         138.1179  140.5015  162.2145 C.ar    1  UNL1        0.0151
      9 C         139.2829  140.4132  163.1552 C.ar    1  UNL1        0.0585
     10 N         139.6045  141.7494  163.7563 N.am    1  UNL1       -0.2529
     11 C         140.6847  142.0984  164.7367 C.2     1  UNL1        0.2480
     12 O         140.7477  143.5389  165.1503 O.2     1  UNL1       -0.2727
     13 C         141.7104  141.1974  165.3581 C.3     1  UNL1        0.1569
     14 C         143.0344  139.1056  165.9273 C.3     1  UNL1        0.0941
     15 C         144.3926  138.9772  165.3038 C.3     1  UNL1        0.0215
     16 C         144.6962  139.6832  164.0155 C.3     1  UNL1        0.0023
     17 C         145.3989  141.0082  164.0341 C.3     1  UNL1        0.0097
     18 C         145.4099  141.8686  162.8054 C.3     1  UNL1        0.0871
     19 O         142.8967  142.1464  162.2084 O.2     1  UNL1       -0.2730
     20 C         144.2377  142.7527  162.4983 C.2     1  UNL1        0.2443
     21 N         144.4065  144.2431  162.4812 N.am    1  UNL1       -0.1970
     22 O         143.2342  145.1271  162.1742 O.3     1  UNL1       -0.2952
     23 H         145.2866  144.6411  162.6715 H       1  UNL1        0.1822
     24 H         142.4501  144.5796  162.0119 H       1  UNL1        0.2414
     25 C         138.7300  142.8870  163.3191 C.3     1  UNL1        0.1248
     26 C         139.2372  143.8805  162.3162 C.ar    1  UNL1       -0.0020
     27 C         139.2259  145.3451  162.6398 C.ar    1  UNL1       -0.0026
     28 C         139.7331  146.3387  161.6369 C.ar    1  UNL1       -0.0003
     29 C         140.2515  145.8675  160.3105 C.ar    1  UNL1       -0.0000
     30 C         140.2627  144.4028  159.9870 C.ar    1  UNL1       -0.0003
     31 C         139.7555  143.4093  160.9898 C.ar    1  UNL1       -0.0026
     32 C         142.6634  141.8560  166.3111 C.3     1  UNL1        0.0556
     33 C         142.2912  142.0124  167.7557 C.ar    1  UNL1       -0.0200
     34 C         140.8683  141.8184  168.1889 C.ar    1  UNL1       -0.0042
     35 C         140.4961  141.9748  169.6335 C.ar    1  UNL1       -0.0003
     36 C         141.5469  142.3253  170.6450 C.ar    1  UNL1       -0.0000
     37 C         142.9698  142.5193  170.2118 C.ar    1  UNL1       -0.0003
     38 C         143.3420  142.3629  168.7671 C.ar    1  UNL1       -0.0042
@<TRIPOS>BOND
     1    19    20    2
     2    20    18    1
     3    18    17    1
     4    17    16    1
     5    16    15    1
     6    15    14    1
     7    14     1    1
     8     1     2   am
     9     2     3    2
    10     2     4    1
    11     4     5   ar
    12     5     6   ar
    13     6     7   ar
    14     7     8   ar
    15     8     9   ar
    16     9    10    1
    17    10    25    1
    18    25    26    1
    19    26    27   ar
    20    27    28   ar
    21    28    29   ar
    22    29    30   ar
    23    30    31   ar
    24    10    11   am
    25    11    12    2
    26    11    13    1
    27    13    32    1
    28    32    33    1
    29    33    34   ar
    30    34    35   ar
    31    35    36   ar
    32    36    37   ar
    33    37    38   ar
    34    20    21   am
    35    21    22    1
    36    13     1    1
    37    38    33   ar
    38     9     4   ar
    39    31    26   ar
    40    21    23    1
    41    22    24    1
@<TRIPOS>MOLECULE
*****
 38 41 0 0 0
SMALL
GASTEIGER

@<TRIPOS>ATOM
      1 N         141.9495  139.4694  162.8007 N.am    1  UNL1       -0.2692
      2 C         140.9593  138.5301  163.4229 C.2     1  UNL1        0.2505
      3 O         140.8729  137.1687  162.7991 O.2     1  UNL1       -0.2699
      4 C         140.0440  138.7721  164.5864 C.ar    1  UNL1        0.0673
      5 C         139.2101  137.5625  164.8885 C.ar    1  UNL1        0.0058
      6 C         138.2251  137.5940  166.0193 C.ar    1  UNL1        0.0002
      7 C         138.0740  138.8352  166.8480 C.ar    1  UNL1        0.0013
      8 C         138.9079  140.0448  166.5459 C.ar    1  UNL1        0.0151
      9 C         139.8929  140.0133  165.4151 C.ar    1  UNL1        0.0585
     10 N         140.6198  141.3189  165.2849 N.am    1  UNL1       -0.2529
     11 C         141.6773  141.7060  164.2939 C.2     1  UNL1        0.2480
     12 O         142.2139  143.1004  164.4260 O.2     1  UNL1       -0.2727
     13 C         142.2691  140.8828  163.1883 C.3     1  UNL1        0.1569
     14 C         142.7224  138.9231  161.6370 C.3     1  UNL1        0.0941
     15 C         142.0254  138.6438  160.3384 C.3     1  UNL1        0.0215
     16 C         141.1139  139.6738  159.7398 C.3     1  UNL1        0.0023
     17 C         139.6580  139.6871  160.1003 C.3     1  UNL1        0.0097
     18 C         138.8419  140.9262  159.8791 C.3     1  UNL1        0.0871
     19 O         137.9849  143.0286  161.1422 O.2     1  UNL1       -0.2730
     20 C         138.0816  141.5368  161.0189 C.2     1  UNL1        0.2443
     21 N         137.4180  140.6556  162.0354 N.am    1  UNL1       -0.1970
     22 O         136.6577  141.2662  163.1751 O.3     1  UNL1       -0.2952
     23 H         137.4814  139.6765  161.9544 H       1  UNL1        0.1822
     24 H         136.6934  142.2331  163.1064 H       1  UNL1        0.2414
     25 C         140.2388  142.3776  166.2769 C.3     1  UNL1        0.1248
     26 C         141.0280  142.5386  167.5423 C.ar    1  UNL1       -0.0020
     27 C         140.4024  143.1936  168.7380 C.ar    1  UNL1       -0.0026
     28 C         141.1915  143.3546  170.0035 C.ar    1  UNL1       -0.0003
     29 C         142.6061  142.8606  170.0733 C.ar    1  UNL1       -0.0000
     30 C         143.2317  142.2057  168.8775 C.ar    1  UNL1       -0.0003
     31 C         142.4426  142.0446  167.6120 C.ar    1  UNL1       -0.0026
     32 C         143.3192  141.5630  162.3610 C.3     1  UNL1        0.0556
     33 C         142.9309  142.2974  161.1121 C.ar    1  UNL1       -0.0200
     34 C         141.6360  143.0527  161.0581 C.ar    1  UNL1       -0.0042
     35 C         141.2477  143.7871  159.8092 C.ar    1  UNL1       -0.0003
     36 C         142.1542  143.7664  158.6143 C.ar    1  UNL1       -0.0000
     37 C         143.4491  143.0112  158.6683 C.ar    1  UNL1       -0.0003
     38 C         143.8375  142.2767  159.9173 C.ar    1  UNL1       -0.0042
@<TRIPOS>BOND
     1    19    20    2
     2    20    18    1
     3    18    17    1
     4    17    16    1
     5    16    15    1
     6    15    14    1
     7    14     1    1
     8     1     2   am
     9     2     3    2
    10     2     4    1
    11     4     5   ar
    12     5     6   ar
    13     6     7   ar
    14     7     8   ar
    15     8     9   ar
    16     9    10    1
    17    10    25    1
    18    25    26    1
    19    26    27   ar
    20    27    28   ar
    21    28    29   ar
    22    29    30   ar
    23    30    31   ar
    24    10    11   am
    25    11    12    2
    26    11    13    1
    27    13    32    1
    28    32    33    1
    29    33    34   ar
    30    34    35   ar
    31    35    36   ar
    32    36    37   ar
    33    37    38   ar
    34    20    21   am
    35    21    22    1
    36    13     1    1
    37    38    33   ar
    38     9     4   ar
    39    31    26   ar
    40    21    23    1
    41    22    24    1
@<TRIPOS>MOLECULE
*****
 38 41 0 0 0
SMALL
GASTEIGER

@<TRIPOS>ATOM
      1 N         142.6818  141.3781  164.9721 N.am    1  UNL1       -0.2692
      2 C         143.4690  140.4571  164.0878 C.2     1  UNL1        0.2505
      3 O         144.9297  140.3387  164.4075 O.2     1  UNL1       -0.2699
      4 C         142.9887  139.6388  162.9260 C.ar    1  UNL1        0.0673
      5 C         144.1071  138.8507  162.3112 C.ar    1  UNL1        0.0058
      6 C         143.8393  137.9632  161.1319 C.ar    1  UNL1        0.0002
      7 C         142.4531  137.8639  160.5675 C.ar    1  UNL1        0.0013
      8 C         141.3347  138.6520  161.1823 C.ar    1  UNL1        0.0151
      9 C         141.6025  139.5394  162.3616 C.ar    1  UNL1        0.0585
     10 N         140.3543  140.2339  162.8196 N.am    1  UNL1       -0.2529
     11 C         140.1839  141.1991  163.9550 C.2     1  UNL1        0.2480
     12 O         138.7940  141.7246  164.1595 O.2     1  UNL1       -0.2727
     13 C         141.2198  141.7084  164.9129 C.3     1  UNL1        0.1569
     14 C         143.4594  142.0590  166.0591 C.3     1  UNL1        0.0941
     15 C         144.1369  143.3696  165.7885 C.3     1  UNL1        0.0215
     16 C         144.1261  143.9477  164.4044 C.3     1  UNL1        0.0023
     17 C         143.0259  144.8790  163.9893 C.3     1  UNL1        0.0097
     18 C         142.1425  144.5263  162.8294 C.3     1  UNL1        0.0871
     19 O         139.7832  145.0558  163.7798 O.2     1  UNL1       -0.2730
     20 C         140.7998  145.1789  162.6837 C.2     1  UNL1        0.2443
     21 N         140.4737  145.9546  161.4419 N.am    1  UNL1       -0.1970
     22 O         139.1310  146.6072  161.2962 O.3     1  UNL1       -0.2952
     23 H         141.1409  146.0354  160.7225 H       1  UNL1        0.1822
     24 H         138.5985  146.4315  162.0877 H       1  UNL1        0.2414
     25 C         139.1121  139.9217  162.0388 C.3     1  UNL1        0.1248
     26 C         138.8180  140.6641  160.7689 C.ar    1  UNL1       -0.0020
     27 C         138.1514  139.9588  159.6252 C.ar    1  UNL1       -0.0026
     28 C         137.8573  140.7011  158.3553 C.ar    1  UNL1       -0.0003
     29 C         138.2296  142.1486  158.2293 C.ar    1  UNL1       -0.0000
     30 C         138.8962  142.8539  159.3731 C.ar    1  UNL1       -0.0003
     31 C         139.1904  142.1117  160.6430 C.ar    1  UNL1       -0.0026
     32 C         140.7287  142.6758  165.9488 C.3     1  UNL1        0.0556
     33 C         140.3496  142.1842  167.3143 C.ar    1  UNL1       -0.0200
     34 C         139.8561  140.7793  167.4954 C.ar    1  UNL1       -0.0042
     35 C         139.4771  140.2877  168.8609 C.ar    1  UNL1       -0.0003
     36 C         139.5915  141.2009  170.0453 C.ar    1  UNL1       -0.0000
     37 C         140.0849  142.6058  169.8642 C.ar    1  UNL1       -0.0003
     38 C         140.4640  143.0974  168.4987 C.ar    1  UNL1       -0.0042
@<TRIPOS>BOND
     1    19    20    2
     2    20    18    1
     3    18    17    1
     4    17    16    1
     5    16    15    1
     6    15    14    1
     7    14     1    1
     8     1     2   am
     9     2     3    2
    10     2     4    1
    11     4     5   ar
    12     5     6   ar
    13     6     7   ar
    14     7     8   ar
    15     8     9   ar
    16     9    10    1
    17    10    25    1
    18    25    26    1
    19    26    27   ar
    20    27    28   ar
    21    28    29   ar
    22    29    30   ar
    23    30    31   ar
    24    10    11   am
    25    11    12    2
    26    11    13    1
    27    13    32    1
    28    32    33    1
    29    33    34   ar
    30    34    35   ar
    31    35    36   ar
    32    36    37   ar
    33    37    38   ar
    34    20    21   am
    35    21    22    1
    36    13     1    1
    37    38    33   ar
    38     9     4   ar
    39    31    26   ar
    40    21    23    1
    41    22    24    1
@<TRIPOS>MOLECULE
*****
 38 41 0 0 0
SMALL
GASTEIGER

@<TRIPOS>ATOM
      1 N         141.2382  139.9615  162.3708 N.am    1  UNL1       -0.2692
      2 C         140.4427  138.8906  163.0566 C.2     1  UNL1        0.2505
      3 O         140.3802  137.5708  162.3465 O.2     1  UNL1       -0.2699
      4 C         139.7015  138.9648  164.3586 C.ar    1  UNL1        0.0673
      5 C         139.0339  137.6616  164.6842 C.ar    1  UNL1        0.0058
      6 C         138.2374  137.5221  165.9475 C.ar    1  UNL1        0.0002
      7 C         138.1085  138.6857  166.8853 C.ar    1  UNL1        0.0013
      8 C         138.7762  139.9888  166.5597 C.ar    1  UNL1        0.0151
      9 C         139.5726  140.1284  165.2964 C.ar    1  UNL1        0.0585
     10 N         140.1532  141.5051  165.1637 N.am    1  UNL1       -0.2529
     11 C         141.0060  142.0583  164.0607 C.2     1  UNL1        0.2480
     12 O         141.4323  143.4873  164.2219 O.2     1  UNL1       -0.2727
     13 C         141.4888  141.3713  162.8178 C.3     1  UNL1        0.1569
     14 C         141.8659  139.5711  161.0657 C.3     1  UNL1        0.0941
     15 C         143.3237  139.2219  161.0094 C.3     1  UNL1        0.0215
     16 C         143.9360  138.3820  162.0909 C.3     1  UNL1        0.0023
     17 C         143.9557  138.8791  163.5059 C.3     1  UNL1        0.0097
     18 C         145.1184  139.6874  164.0008 C.3     1  UNL1        0.0871
     19 O         145.8536  141.7642  162.6237 O.2     1  UNL1       -0.2730
     20 C         145.1371  141.1740  163.8020 C.2     1  UNL1        0.2443
     21 N         144.4394  142.0706  164.7816 N.am    1  UNL1       -0.1970
     22 O         144.4581  143.5572  164.5828 O.3     1  UNL1       -0.2952
     23 H         143.9692  141.6832  165.5550 H       1  UNL1        0.1822
     24 H         144.9599  143.7698  163.7804 H       1  UNL1        0.2414
     25 C         139.8395  142.4542  166.2822 C.3     1  UNL1        0.1248
     26 C         140.7630  142.5573  167.4597 C.ar    1  UNL1       -0.0020
     27 C         140.3107  143.2541  168.7087 C.ar    1  UNL1       -0.0026
     28 C         141.2342  143.3573  169.8862 C.ar    1  UNL1       -0.0003
     29 C         142.6098  142.7636  169.8148 C.ar    1  UNL1       -0.0000
     30 C         143.0621  142.0667  168.5658 C.ar    1  UNL1       -0.0003
     31 C         142.1386  141.9636  167.3882 C.ar    1  UNL1       -0.0026
     32 C         142.3342  142.2043  161.9003 C.3     1  UNL1        0.0556
     33 C         141.6841  143.0883  160.8777 C.ar    1  UNL1       -0.0200
     34 C         141.3824  142.5550  159.5084 C.ar    1  UNL1       -0.0042
     35 C         140.7323  143.4390  158.4858 C.ar    1  UNL1       -0.0003
     36 C         140.3838  144.8563  158.8323 C.ar    1  UNL1       -0.0000
     37 C         140.6855  145.3895  160.2014 C.ar    1  UNL1       -0.0003
     38 C         141.3356  144.5055  161.2242 C.ar    1  UNL1       -0.0042
@<TRIPOS>BOND
     1    19    20    2
     2    20    18    1
     3    18    17    1
     4    17    16    1
     5    16    15    1
     6    15    14    1
     7    14     1    1
     8     1     2   am
     9     2     3    2
    10     2     4    1
    11     4     5   ar
    12     5     6   ar
    13     6     7   ar
    14     7     8   ar
    15     8     9   ar
    16     9    10    1
    17    10    25    1
    18    25    26    1
    19    26    27   ar
    20    27    28   ar
    21    28    29   ar
    22    29    30   ar
    23    30    31   ar
    24    10    11   am
    25    11    12    2
    26    11    13    1
    27    13    32    1
    28    32    33    1
    29    33    34   ar
    30    34    35   ar
    31    35    36   ar
    32    36    37   ar
    33    37    38   ar
    34    20    21   am
    35    21    22    1
    36    13     1    1
    37    38    33   ar
    38     9     4   ar
    39    31    26   ar
    40    21    23    1
    41    22    24    1
@<TRIPOS>MOLECULE
*****
 38 41 0 0 0
SMALL
GASTEIGER

@<TRIPOS>ATOM
      1 N         143.2316  142.4203  162.7315 N.am    1  UNL1       -0.2692
      2 C         144.0957  141.3385  163.3085 C.2     1  UNL1        0.2505
      3 O         145.4685  141.2169  162.7164 O.2     1  UNL1       -0.2699
      4 C         143.7686  140.3621  164.3993 C.ar    1  UNL1        0.0673
      5 C         144.9209  139.4422  164.6749 C.ar    1  UNL1        0.0058
      6 C         144.8010  138.3866  165.7338 C.ar    1  UNL1        0.0002
      7 C         143.5289  138.2510  166.5171 C.ar    1  UNL1        0.0013
      8 C         142.3767  139.1709  166.2414 C.ar    1  UNL1        0.0151
      9 C         142.4966  140.2265  165.1825 C.ar    1  UNL1        0.0585
     10 N         141.2374  141.0337  165.0683 N.am    1  UNL1       -0.2529
     11 C         140.9393  142.1759  164.1429 C.2     1  UNL1        0.2480
     12 O         139.5732  142.7810  164.2748 O.2     1  UNL1       -0.2727
     13 C         141.8268  142.7930  163.1029 C.3     1  UNL1        0.1569
     14 C         143.8544  143.2375  161.6388 C.3     1  UNL1        0.0941
     15 C         143.9356  142.6887  160.2451 C.3     1  UNL1        0.0215
     16 C         143.1317  141.4800  159.8671 C.3     1  UNL1        0.0023
     17 C         143.8264  140.2082  159.4803 C.3     1  UNL1        0.0097
     18 C         143.9238  139.0783  160.4621 C.3     1  UNL1        0.0871
     19 O         141.5022  138.2834  159.9583 O.2     1  UNL1       -0.2730
     20 C         142.6882  138.3351  160.8752 C.2     1  UNL1        0.2443
     21 N         142.6385  137.6434  162.2054 N.am    1  UNL1       -0.1970
     22 O         141.4028  136.9002  162.6185 O.3     1  UNL1       -0.2952
     23 H         143.4168  137.6773  162.8073 H       1  UNL1        0.1822
     24 H         140.7365  136.9653  161.9166 H       1  UNL1        0.2414
     25 C         140.1299  140.6476  166.0034 C.3     1  UNL1        0.1248
     26 C         140.0819  141.2236  167.3876 C.ar    1  UNL1       -0.0020
     27 C         140.5572  142.6249  167.6337 C.ar    1  UNL1       -0.0026
     28 C         140.5092  143.2009  169.0178 C.ar    1  UNL1       -0.0003
     29 C         139.9859  142.3757  170.1559 C.ar    1  UNL1       -0.0000
     30 C         139.5106  140.9744  169.9098 C.ar    1  UNL1       -0.0003
     31 C         139.5586  140.3983  168.5256 C.ar    1  UNL1       -0.0026
     32 C         141.2307  143.9336  162.3323 C.3     1  UNL1        0.0556
     33 C         140.5360  143.6758  161.0282 C.ar    1  UNL1       -0.0200
     34 C         139.6593  142.4687  160.8712 C.ar    1  UNL1       -0.0042
     35 C         138.9645  142.2110  159.5671 C.ar    1  UNL1       -0.0003
     36 C         139.1463  143.1602  158.4199 C.ar    1  UNL1       -0.0000
     37 C         140.0229  144.3672  158.5769 C.ar    1  UNL1       -0.0003
     38 C         140.7177  144.6250  159.8811 C.ar    1  UNL1       -0.0042
@<TRIPOS>BOND
     1    19    20    2
     2    20    18    1
     3    18    17    1
     4    17    16    1
     5    16    15    1
     6    15    14    1
     7    14     1    1
     8     1     2   am
     9     2     3    2
    10     2     4    1
    11     4     5   ar
    12     5     6   ar
    13     6     7   ar
    14     7     8   ar
    15     8     9   ar
    16     9    10    1
    17    10    25    1
    18    25    26    1
    19    26    27   ar
    20    27    28   ar
    21    28    29   ar
    22    29    30   ar
    23    30    31   ar
    24    10    11   am
    25    11    12    2
    26    11    13    1
    27    13    32    1
    28    32    33    1
    29    33    34   ar
    30    34    35   ar
    31    35    36   ar
    32    36    37   ar
    33    37    38   ar
    34    20    21   am
    35    21    22    1
    36    13     1    1
    37    38    33   ar
    38     9     4   ar
    39    31    26   ar
    40    21    23    1
    41    22    24    1
@<TRIPOS>MOLECULE
*****
 38 41 0 0 0
SMALL
GASTEIGER

@<TRIPOS>ATOM
      1 N         142.0286  139.1546  162.9184 N.am    1  UNL1       -0.2692
      2 C         140.9890  138.2920  163.5704 C.2     1  UNL1        0.2505
      3 O         140.8643  136.8996  163.0267 O.2     1  UNL1       -0.2699
      4 C         140.0576  138.6375  164.6943 C.ar    1  UNL1        0.0673
      5 C         139.1710  137.4801  165.0469 C.ar    1  UNL1        0.0058
      6 C         138.1626  137.6163  166.1489 C.ar    1  UNL1        0.0002
      7 C         138.0407  138.9099  166.8983 C.ar    1  UNL1        0.0013
      8 C         138.9273  140.0673  166.5458 C.ar    1  UNL1        0.0151
      9 C         139.9357  139.9311  165.4438 C.ar    1  UNL1        0.0585
     10 N         140.7152  141.1987  165.2544 N.am    1  UNL1       -0.2529
     11 C         141.8090  141.4857  164.2690 C.2     1  UNL1        0.2480
     12 O         142.3959  142.8646  164.3313 O.2     1  UNL1       -0.2727
     13 C         142.3935  140.5759  163.2293 C.3     1  UNL1        0.1569
     14 C         142.8060  138.5108  161.8089 C.3     1  UNL1        0.0941
     15 C         142.1950  138.3750  160.4457 C.3     1  UNL1        0.0215
     16 C         143.0405  138.5701  159.2221 C.3     1  UNL1        0.0023
     17 C         142.6027  139.5265  158.1527 C.3     1  UNL1        0.0097
     18 C         142.4528  139.0520  156.7376 C.3     1  UNL1        0.0871
     19 O         142.1735  136.4722  156.6091 O.2     1  UNL1       -0.2730
     20 C         142.9816  137.7064  156.3378 C.2     1  UNL1        0.2443
     21 N         144.3185  137.5951  155.6667 N.am    1  UNL1       -0.1970
     22 O         144.8473  136.2496  155.2670 O.3     1  UNL1       -0.2952
     23 H         144.8489  138.4052  155.4887 H       1  UNL1        0.1822
     24 H         144.2062  135.5643  155.5125 H       1  UNL1        0.2414
     25 C         140.3529  142.3286  166.1720 C.3     1  UNL1        0.1248
     26 C         141.0850  142.5056  167.4693 C.ar    1  UNL1       -0.0020
     27 C         140.4069  143.1752  168.6276 C.ar    1  UNL1       -0.0026
     28 C         141.1388  143.3523  169.9250 C.ar    1  UNL1       -0.0003
     29 C         142.5488  142.8596  170.0638 C.ar    1  UNL1       -0.0000
     30 C         143.2269  142.1900  168.9054 C.ar    1  UNL1       -0.0003
     31 C         142.4949  142.0129  167.6081 C.ar    1  UNL1       -0.0026
     32 C         143.4876  141.1656  162.3895 C.3     1  UNL1        0.0556
     33 C         143.1543  141.8553  161.0999 C.ar    1  UNL1       -0.0200
     34 C         141.7254  142.1596  160.7596 C.ar    1  UNL1       -0.0042
     35 C         141.3921  142.8494  159.4701 C.ar    1  UNL1       -0.0003
     36 C         142.4876  143.2349  158.5207 C.ar    1  UNL1       -0.0000
     37 C         143.9164  142.9306  158.8610 C.ar    1  UNL1       -0.0003
     38 C         144.2498  142.2408  160.1506 C.ar    1  UNL1       -0.0042
@<TRIPOS>BOND
     1    19    20    2
     2    20    18    1
     3    18    17    1
     4    17    16    1
     5    16    15    1
     6    15    14    1
     7    14     1    1
     8     1     2   am
     9     2     3    2
    10     2     4    1
    11     4     5   ar
    12     5     6   ar
    13     6     7   ar
    14     7     8   ar
    15     8     9   ar
    16     9    10    1
    17    10    25    1
    18    25    26    1
    19    26    27   ar
    20    27    28   ar
    21    28    29   ar
    22    29    30   ar
    23    30    31   ar
    24    10    11   am
    25    11    12    2
    26    11    13    1
    27    13    32    1
    28    32    33    1
    29    33    34   ar
    30    34    35   ar
    31    35    36   ar
    32    36    37   ar
    33    37    38   ar
    34    20    21   am
    35    21    22    1
    36    13     1    1
    37    38    33   ar
    38     9     4   ar
    39    31    26   ar
    40    21    23    1
    41    22    24    1
@<TRIPOS>MOLECULE
*****
 38 41 0 0 0
SMALL
GASTEIGER

@<TRIPOS>ATOM
      1 N         140.2411  141.1231  161.2231 N.am    1  UNL1       -0.2692
      2 C         139.1666  141.9560  161.8569 C.2     1  UNL1        0.2505
      3 O         137.8617  142.0061  161.1188 O.2     1  UNL1       -0.2699
      4 C         139.2243  142.7454  163.1311 C.ar    1  UNL1        0.0673
      5 C         137.9231  143.4394  163.4052 C.ar    1  UNL1        0.0058
      6 C         137.7686  144.2849  164.6345 C.ar    1  UNL1        0.0002
      7 C         138.9152  144.4363  165.5897 C.ar    1  UNL1        0.0013
      8 C         140.2164  143.7423  165.3155 C.ar    1  UNL1        0.0151
      9 C         140.3710  142.8968  164.0862 C.ar    1  UNL1        0.0585
     10 N         141.7430  142.2963  164.0030 N.am    1  UNL1       -0.2529
     11 C         142.3073  141.3960  162.9442 C.2     1  UNL1        0.2480
     12 O         143.7278  140.9603  163.1498 O.2     1  UNL1       -0.2727
     13 C         141.6389  140.8739  161.7070 C.3     1  UNL1        0.1569
     14 C         139.8687  140.4505  159.9351 C.3     1  UNL1        0.0941
     15 C         139.8001  141.2468  158.6657 C.3     1  UNL1        0.0215
     16 C         140.5019  142.5691  158.5710 C.3     1  UNL1        0.0023
     17 C         139.7212  143.8433  158.7003 C.3     1  UNL1        0.0097
     18 C         140.4117  145.1065  159.1222 C.3     1  UNL1        0.0871
     19 O         139.4095  145.9882  161.3511 O.2     1  UNL1       -0.2730
     20 C         140.5664  145.4257  160.5796 C.2     1  UNL1        0.2443
     21 N         141.8781  145.1825  161.2656 N.am    1  UNL1       -0.1970
     22 O         142.0328  145.5018  162.7230 O.3     1  UNL1       -0.2952
     23 H         142.6374  144.8134  160.7592 H       1  UNL1        0.1822
     24 H         141.1972  145.8542  163.0672 H       1  UNL1        0.2414
     25 C         142.6738  142.6418  165.1274 C.3     1  UNL1        0.1248
     26 C         142.6821  141.8111  166.3765 C.ar    1  UNL1       -0.0020
     27 C         142.3280  140.3550  166.3110 C.ar    1  UNL1       -0.0026
     28 C         142.3362  139.5243  167.5600 C.ar    1  UNL1       -0.0003
     29 C         142.6986  140.1498  168.8743 C.ar    1  UNL1       -0.0000
     30 C         143.0527  141.6060  168.9397 C.ar    1  UNL1       -0.0003
     31 C         143.0445  142.4367  167.6907 C.ar    1  UNL1       -0.0026
     32 C         142.4794  139.9851  160.8390 C.3     1  UNL1        0.0556
     33 C         143.2543  140.5692  159.6952 C.ar    1  UNL1       -0.0200
     34 C         143.3870  139.8050  158.4113 C.ar    1  UNL1       -0.0042
     35 C         144.1620  140.3891  157.2675 C.ar    1  UNL1       -0.0003
     36 C         144.8043  141.7374  157.4076 C.ar    1  UNL1       -0.0000
     37 C         144.6716  142.5015  158.6915 C.ar    1  UNL1       -0.0003
     38 C         143.8966  141.9174  159.8353 C.ar    1  UNL1       -0.0042
@<TRIPOS>BOND
     1    19    20    2
     2    20    18    1
     3    18    17    1
     4    17    16    1
     5    16    15    1
     6    15    14    1
     7    14     1    1
     8     1     2   am
     9     2     3    2
    10     2     4    1
    11     4     5   ar
    12     5     6   ar
    13     6     7   ar
    14     7     8   ar
    15     8     9   ar
    16     9    10    1
    17    10    25    1
    18    25    26    1
    19    26    27   ar
    20    27    28   ar
    21    28    29   ar
    22    29    30   ar
    23    30    31   ar
    24    10    11   am
    25    11    12    2
    26    11    13    1
    27    13    32    1
    28    32    33    1
    29    33    34   ar
    30    34    35   ar
    31    35    36   ar
    32    36    37   ar
    33    37    38   ar
    34    20    21   am
    35    21    22    1
    36    13     1    1
    37    38    33   ar
    38     9     4   ar
    39    31    26   ar
    40    21    23    1
    41    22    24    1
@<TRIPOS>MOLECULE
*****
 38 41 0 0 0
SMALL
GASTEIGER

@<TRIPOS>ATOM
      1 N         142.3025  144.4922  162.2575 N.am    1  UNL1       -0.2692
      2 C         141.3831  144.8850  161.1392 C.2     1  UNL1        0.2505
      3 O         140.2992  145.8575  161.4989 O.2     1  UNL1       -0.2699
      4 C         141.4043  144.4339  159.7088 C.ar    1  UNL1        0.0673
      5 C         140.3017  145.0716  158.9167 C.ar    1  UNL1        0.0058
      6 C         140.1449  144.7540  157.4591 C.ar    1  UNL1        0.0002
      7 C         141.0907  143.7987  156.7937 C.ar    1  UNL1        0.0013
      8 C         142.1933  143.1609  157.5858 C.ar    1  UNL1        0.0151
      9 C         142.3501  143.4785  159.0434 C.ar    1  UNL1        0.0585
     10 N         143.5083  142.7384  159.6441 N.am    1  UNL1       -0.2529
     11 C         144.0068  142.7707  161.0584 C.2     1  UNL1        0.2480
     12 O         145.1995  141.9085  161.3480 O.2     1  UNL1       -0.2727
     13 C         143.4701  143.5512  162.2215 C.3     1  UNL1        0.1569
     14 C         142.0164  145.1239  163.5876 C.3     1  UNL1        0.0941
     15 C         140.6932  144.8966  164.2567 C.3     1  UNL1        0.0215
     16 C         140.3657  143.5511  164.8333 C.3     1  UNL1        0.0023
     17 C         138.9524  143.2217  165.2128 C.3     1  UNL1        0.0097
     18 C         137.8277  143.5549  164.2778 C.3     1  UNL1        0.0871
     19 O         137.9494  143.3325  161.6921 O.2     1  UNL1       -0.2730
     20 C         137.6224  142.7441  163.0326 C.2     1  UNL1        0.2443
     21 N         137.0902  141.3449  163.1279 N.am    1  UNL1       -0.1970
     22 O         136.8850  140.5341  161.8827 O.3     1  UNL1       -0.2952
     23 H         136.8756  140.9587  164.0077 H       1  UNL1        0.1822
     24 H         137.1432  141.0590  161.1089 H       1  UNL1        0.2414
     25 C         144.2685  141.8481  158.7063 C.3     1  UNL1        0.1248
     26 C         143.7613  140.4690  158.4045 C.ar    1  UNL1       -0.0020
     27 C         143.3116  139.5744  159.5213 C.ar    1  UNL1       -0.0026
     28 C         142.8044  138.1953  159.2196 C.ar    1  UNL1       -0.0003
     29 C         142.7469  137.7110  157.8010 C.ar    1  UNL1       -0.0000
     30 C         143.1967  138.6058  156.6842 C.ar    1  UNL1       -0.0003
     31 C         143.7039  139.9848  156.9859 C.ar    1  UNL1       -0.0026
     32 C         144.1972  143.3664  163.5204 C.3     1  UNL1        0.0556
     33 C         143.6520  142.4311  164.5586 C.ar    1  UNL1       -0.0200
     34 C         143.6799  142.8200  166.0071 C.ar    1  UNL1       -0.0042
     35 C         143.1347  141.8847  167.0454 C.ar    1  UNL1       -0.0003
     36 C         142.5617  140.5605  166.6352 C.ar    1  UNL1       -0.0000
     37 C         142.5338  140.1716  165.1868 C.ar    1  UNL1       -0.0003
     38 C         143.0790  141.1069  164.1484 C.ar    1  UNL1       -0.0042
@<TRIPOS>BOND
     1    19    20    2
     2    20    18    1
     3    18    17    1
     4    17    16    1
     5    16    15    1
     6    15    14    1
     7    14     1    1
     8     1     2   am
     9     2     3    2
    10     2     4    1
    11     4     5   ar
    12     5     6   ar
    13     6     7   ar
    14     7     8   ar
    15     8     9   ar
    16     9    10    1
    17    10    25    1
    18    25    26    1
    19    26    27   ar
    20    27    28   ar
    21    28    29   ar
    22    29    30   ar
    23    30    31   ar
    24    10    11   am
    25    11    12    2
    26    11    13    1
    27    13    32    1
    28    32    33    1
    29    33    34   ar
    30    34    35   ar
    31    35    36   ar
    32    36    37   ar
    33    37    38   ar
    34    20    21   am
    35    21    22    1
    36    13     1    1
    37    38    33   ar
    38     9     4   ar
    39    31    26   ar
    40    21    23    1
    41    22    24    1
@<TRIPOS>MOLECULE
*****
 38 41 0 0 0
SMALL
GASTEIGER

@<TRIPOS>ATOM
      1 N         143.3139  140.0861  162.7289 N.am    1  UNL1       -0.2692
      2 C         143.9645  141.0596  161.7913 C.2     1  UNL1        0.2505
      3 O         145.0723  141.8849  162.3758 O.2     1  UNL1       -0.2699
      4 C         143.6540  141.3169  160.3465 C.ar    1  UNL1        0.0673
      5 C         144.5458  142.3790  159.7750 C.ar    1  UNL1        0.0058
      6 C         144.3996  142.7884  158.3394 C.ar    1  UNL1        0.0002
      7 C         143.3616  142.1358  157.4753 C.ar    1  UNL1        0.0013
      8 C         142.4698  141.0737  158.0468 C.ar    1  UNL1        0.0151
      9 C         142.6160  140.6643  159.4824 C.ar    1  UNL1        0.0585
     10 N         141.6322  139.5931  159.8498 N.am    1  UNL1       -0.2529
     11 C         141.4434  138.9101  161.1718 C.2     1  UNL1        0.2480
     12 O         140.3635  137.8701  161.2187 O.2     1  UNL1       -0.2727
     13 C         142.1919  139.1295  162.4531 C.3     1  UNL1        0.1569
     14 C         143.8570  140.0667  164.1269 C.3     1  UNL1        0.0941
     15 C         143.6876  141.2644  165.0140 C.3     1  UNL1        0.0215
     16 C         142.9463  141.1375  166.3119 C.3     1  UNL1        0.0023
     17 C         142.7982  139.7942  166.9626 C.3     1  UNL1        0.0097
     18 C         141.7862  139.5961  168.0521 C.3     1  UNL1        0.0871
     19 O         143.0218  138.3437  169.9639 O.2     1  UNL1       -0.2730
     20 C         142.2296  139.5233  169.4832 C.2     1  UNL1        0.2443
     21 N         141.8806  140.6300  170.4338 N.am    1  UNL1       -0.1970
     22 O         142.3240  140.5572  171.8649 O.3     1  UNL1       -0.2952
     23 H         141.3607  141.4042  170.1183 H       1  UNL1        0.1822
     24 H         142.8212  139.7367  172.0079 H       1  UNL1        0.2414
     25 C         140.7161  139.1459  158.7495 C.3     1  UNL1        0.1248
     26 C         141.1378  138.0434  157.8238 C.ar    1  UNL1       -0.0020
     27 C         142.4862  137.4057  157.9825 C.ar    1  UNL1       -0.0026
     28 C         142.9080  136.3033  157.0569 C.ar    1  UNL1       -0.0003
     29 C         141.9815  135.8386  155.9727 C.ar    1  UNL1       -0.0000
     30 C         140.6331  136.4764  155.8140 C.ar    1  UNL1       -0.0003
     31 C         140.2112  137.5788  156.7396 C.ar    1  UNL1       -0.0026
     32 C         141.7614  138.2799  163.6119 C.3     1  UNL1        0.0556
     33 C         140.5260  138.6357  164.3846 C.ar    1  UNL1       -0.0200
     34 C         140.0952  140.0685  164.4922 C.ar    1  UNL1       -0.0042
     35 C         138.8598  140.4243  165.2648 C.ar    1  UNL1       -0.0003
     36 C         138.0550  139.3473  165.9300 C.ar    1  UNL1       -0.0000
     37 C         138.4857  137.9145  165.8225 C.ar    1  UNL1       -0.0003
     38 C         139.7212  137.5587  165.0498 C.ar    1  UNL1       -0.0042
@<TRIPOS>BOND
     1    19    20    2
     2    20    18    1
     3    18    17    1
     4    17    16    1
     5    16    15    1
     6    15    14    1
     7    14     1    1
     8     1     2   am
     9     2     3    2
    10     2     4    1
    11     4     5   ar
    12     5     6   ar
    13     6     7   ar
    14     7     8   ar
    15     8     9   ar
    16     9    10    1
    17    10    25    1
    18    25    26    1
    19    26    27   ar
    20    27    28   ar
    21    28    29   ar
    22    29    30   ar
    23    30    31   ar
    24    10    11   am
    25    11    12    2
    26    11    13    1
    27    13    32    1
    28    32    33    1
    29    33    34   ar
    30    34    35   ar
    31    35    36   ar
    32    36    37   ar
    33    37    38   ar
    34    20    21   am
    35    21    22    1
    36    13     1    1
    37    38    33   ar
    38     9     4   ar
    39    31    26   ar
    40    21    23    1
    41    22    24    1
