@<TRIPOS>MOLECULE
*****
 23 24 0 0 0
SMALL
GASTEIGER

@<TRIPOS>ATOM
      1 N         139.6497  141.5610  165.9849 N.ar    1  UNL1       -0.2918
      2 C         139.9292  142.9983  166.3106 C.ar    1  UNL1        0.1798
      3 N         139.3252  143.8445  165.2293 N.ar    1  UNL1       -0.2195
      4 C         138.6723  142.9302  164.2354 C.ar    1  UNL1        0.1481
      5 C         137.9211  143.2005  162.9655 C.ar    1  UNL1        0.1480
      6 N         137.7205  144.6117  162.4986 N.pl3   1  UNL1       -0.3413
      7 N         137.3704  142.0594  162.1626 N.ar    1  UNL1       -0.2078
      8 C         137.5710  140.6481  162.6296 C.ar    1  UNL1        0.2015
      9 N         138.3222  140.3779  163.8994 N.ar    1  UNL1       -0.2048
     10 C         138.8728  141.5189  164.7024 C.ar    1  UNL1        0.1674
     11 H         138.0819  145.3607  163.0256 H       1  UNL1        0.1438
     12 H         137.2275  144.7891  161.6651 H       1  UNL1        0.1438
     13 C         140.0727  140.3742  166.7988 C.3     1  UNL1        0.1384
     14 C         138.0365  138.7807  167.0544 C.3     1  UNL1        0.0342
     15 C         139.0763  139.6690  167.6707 C.3     1  UNL1        0.1387
     16 O         139.1197  139.8523  169.1588 O.3     1  UNL1       -0.3426
     17 C         140.4209  140.1586  169.8391 C.3     1  UNL1        0.2577
     18 P         140.4910  141.2475  170.8685 P.3     1  UNL1        0.3665
     19 O         140.5611  142.3363  171.8978 O.2     1  UNL1       -0.2556
     20 O         140.6008  140.2161  171.9520 O.3     1  UNL1       -0.3220
     21 O         140.3811  142.2789  169.7849 O.3     1  UNL1       -0.3220
     22 H         140.6672  140.6576  172.8132 H       1  UNL1        0.2198
     23 H         140.4002  143.1650  170.1789 H       1  UNL1        0.2198
@<TRIPOS>BOND
     1    15    14    1
     2    15    13    1
     3    13     1    1
     4     1     2   ar
     5     2     3   ar
     6     3     4   ar
     7     4     5   ar
     8     5     6    1
     9     5     7   ar
    10     7     8   ar
    11     8     9   ar
    12     9    10   ar
    13    15    16    1
    14    16    17    1
    15    17    18    1
    16    18    19    2
    17    18    20    1
    18    18    21    1
    19    10     1   ar
    20    10     4   ar
    21     6    11    1
    22     6    12    1
    23    20    22    1
    24    21    23    1
@<TRIPOS>MOLECULE
*****
 23 24 0 0 0
SMALL
GASTEIGER

@<TRIPOS>ATOM
      1 N         141.1779  140.4567  167.1340 N.ar    1  UNL1       -0.2918
      2 C         142.2679  139.4554  166.8904 C.ar    1  UNL1        0.1798
      3 N         142.9926  139.2352  168.1851 N.ar    1  UNL1       -0.2195
      4 C         142.3505  140.1003  169.2288 C.ar    1  UNL1        0.1481
      5 C         142.6422  140.2982  170.6868 C.ar    1  UNL1        0.1480
      6 N         143.7637  139.5432  171.3365 N.pl3   1  UNL1       -0.3413
      7 N         141.8122  141.2510  171.4951 N.ar    1  UNL1       -0.2078
      8 C         140.6907  142.0059  170.8454 C.ar    1  UNL1        0.2015
      9 N         140.3990  141.8081  169.3874 N.ar    1  UNL1       -0.2048
     10 C         141.2289  140.8553  168.5791 C.ar    1  UNL1        0.1674
     11 H         144.3084  138.9179  170.8060 H       1  UNL1        0.1438
     12 H         143.9552  139.6731  172.2934 H       1  UNL1        0.1438
     13 C         140.2072  140.9694  166.1117 C.3     1  UNL1        0.1384
     14 C         138.5124  139.1170  166.7802 C.3     1  UNL1        0.0342
     15 C         138.9093  140.2525  165.8840 C.3     1  UNL1        0.1387
     16 O         138.0084  140.6712  164.7602 O.3     1  UNL1       -0.3426
     17 C         137.8852  142.1216  164.3982 C.3     1  UNL1        0.2577
     18 P         137.7734  142.5286  162.9588 P.3     1  UNL1        0.3665
     19 O         137.6615  142.9356  161.5194 O.2     1  UNL1       -0.2556
     20 O         136.8728  141.3578  162.6978 O.3     1  UNL1       -0.3220
     21 O         138.6739  143.6994  163.2199 O.3     1  UNL1       -0.3220
     22 H         136.6105  141.3536  161.7639 H       1  UNL1        0.2198
     23 H         138.7999  144.1999  162.3986 H       1  UNL1        0.2198
@<TRIPOS>BOND
     1    15    14    1
     2    15    13    1
     3    13     1    1
     4     1     2   ar
     5     2     3   ar
     6     3     4   ar
     7     4     5   ar
     8     5     6    1
     9     5     7   ar
    10     7     8   ar
    11     8     9   ar
    12     9    10   ar
    13    15    16    1
    14    16    17    1
    15    17    18    1
    16    18    19    2
    17    18    20    1
    18    18    21    1
    19    10     1   ar
    20    10     4   ar
    21     6    11    1
    22     6    12    1
    23    20    22    1
    24    21    23    1
@<TRIPOS>MOLECULE
*****
 23 24 0 0 0
SMALL
GASTEIGER

@<TRIPOS>ATOM
      1 N         141.8625  140.8981  167.4055 N.ar    1  UNL1       -0.2918
      2 C         142.9369  141.8268  166.9227 C.ar    1  UNL1        0.1798
      3 N         143.3649  142.6813  168.0788 N.ar    1  UNL1       -0.2195
      4 C         142.5550  142.2807  169.2761 C.ar    1  UNL1        0.1481
      5 C         142.5431  142.7772  170.6915 C.ar    1  UNL1        0.1480
      6 N         143.4717  143.8792  171.1076 N.pl3   1  UNL1       -0.3413
      7 N         141.6026  142.1715  171.6908 N.ar    1  UNL1       -0.2078
      8 C         140.6741  141.0694  171.2747 C.ar    1  UNL1        0.2015
      9 N         140.6860  140.5730  169.8593 N.ar    1  UNL1       -0.2048
     10 C         141.6264  141.1786  168.8600 C.ar    1  UNL1        0.1674
     11 H         144.0889  144.2768  170.4518 H       1  UNL1        0.1438
     12 H         143.4638  144.2051  172.0366 H       1  UNL1        0.1438
     13 C         141.1493  139.8694  166.5790 C.3     1  UNL1        0.1384
     14 C         138.6344  139.2389  166.7478 C.3     1  UNL1        0.0342
     15 C         139.7235  140.0931  166.1697 C.3     1  UNL1        0.1387
     16 O         139.3870  141.1710  165.1823 O.3     1  UNL1       -0.3426
     17 C         138.0393  141.1911  164.5241 C.3     1  UNL1        0.2577
     18 P         137.8160  142.0250  163.2974 P.3     1  UNL1        0.3665
     19 O         137.5927  142.8589  162.0707 O.2     1  UNL1       -0.2556
     20 O         139.0783  142.7832  163.5831 O.3     1  UNL1       -0.3220
     21 O         136.5537  141.2667  163.0117 O.3     1  UNL1       -0.3220
     22 H         139.2143  143.4550  162.8967 H       1  UNL1        0.2198
     23 H         136.1454  141.6117  162.2023 H       1  UNL1        0.2198
@<TRIPOS>BOND
     1    15    14    1
     2    15    13    1
     3    13     1    1
     4     1     2   ar
     5     2     3   ar
     6     3     4   ar
     7     4     5   ar
     8     5     6    1
     9     5     7   ar
    10     7     8   ar
    11     8     9   ar
    12     9    10   ar
    13    15    16    1
    14    16    17    1
    15    17    18    1
    16    18    19    2
    17    18    20    1
    18    18    21    1
    19    10     1   ar
    20    10     4   ar
    21     6    11    1
    22     6    12    1
    23    20    22    1
    24    21    23    1
@<TRIPOS>MOLECULE
*****
 23 24 0 0 0
SMALL
GASTEIGER

@<TRIPOS>ATOM
      1 N         141.7213  142.1361  166.0256 N.ar    1  UNL1       -0.2918
      2 C         140.3604  142.7423  166.2008 C.ar    1  UNL1        0.1798
      3 N         140.2278  143.8735  165.2248 N.ar    1  UNL1       -0.2195
      4 C         141.5066  143.9666  164.4464 C.ar    1  UNL1        0.1481
      5 C         141.9498  144.8903  163.3508 C.ar    1  UNL1        0.1480
      6 N         141.0267  145.9641  162.8559 N.pl3   1  UNL1       -0.3413
      7 N         143.3160  144.7402  162.7502 N.ar    1  UNL1       -0.2078
      8 C         144.2391  143.6664  163.2451 C.ar    1  UNL1        0.2015
      9 N         143.7959  142.7427  164.3406 N.ar    1  UNL1       -0.2048
     10 C         142.4296  142.8928  164.9413 C.ar    1  UNL1        0.1674
     11 H         140.1300  146.0626  163.2501 H       1  UNL1        0.1438
     12 H         141.3176  146.5704  162.1369 H       1  UNL1        0.1438
     13 C         142.2764  140.9769  166.7989 C.3     1  UNL1        0.1384
     14 C         143.3415  142.4271  168.6731 C.3     1  UNL1        0.0342
     15 C         142.6785  141.1555  168.2329 C.3     1  UNL1        0.1387
     16 O         142.4177  140.0627  169.2268 O.3     1  UNL1       -0.3426
     17 C         141.1252  140.0334  169.9873 C.3     1  UNL1        0.2577
     18 P         140.8598  141.0530  171.0550 P.3     1  UNL1        0.3665
     19 O         140.5945  142.0726  172.1226 O.2     1  UNL1       -0.2556
     20 O         139.5686  141.4186  170.3849 O.3     1  UNL1       -0.3220
     21 O         142.1511  140.6874  171.7251 O.3     1  UNL1       -0.3220
     22 H         139.1285  142.1191  170.8914 H       1  UNL1        0.2198
     23 H         142.2676  141.2302  172.5205 H       1  UNL1        0.2198
@<TRIPOS>BOND
     1    15    14    1
     2    15    13    1
     3    13     1    1
     4     1     2   ar
     5     2     3   ar
     6     3     4   ar
     7     4     5   ar
     8     5     6    1
     9     5     7   ar
    10     7     8   ar
    11     8     9   ar
    12     9    10   ar
    13    15    16    1
    14    16    17    1
    15    17    18    1
    16    18    19    2
    17    18    20    1
    18    18    21    1
    19    10     1   ar
    20    10     4   ar
    21     6    11    1
    22     6    12    1
    23    20    22    1
    24    21    23    1
@<TRIPOS>MOLECULE
*****
 23 24 0 0 0
SMALL
GASTEIGER

@<TRIPOS>ATOM
      1 N         140.8200  144.9369  161.9723 N.ar    1  UNL1       -0.2918
      2 C         141.1615  144.8425  160.5147 C.ar    1  UNL1        0.1798
      3 N         142.5004  144.1769  160.3946 N.ar    1  UNL1       -0.2195
      4 C         142.9863  143.8598  161.7778 C.ar    1  UNL1        0.1481
      5 C         144.2402  143.2041  162.2754 C.ar    1  UNL1        0.1480
      6 N         145.2787  142.7344  161.3003 N.pl3   1  UNL1       -0.3413
      7 N         144.4556  143.0181  163.7481 N.ar    1  UNL1       -0.2078
      8 C         143.4171  143.4878  164.7233 C.ar    1  UNL1        0.2015
      9 N         142.1632  144.1436  164.2256 N.ar    1  UNL1       -0.2048
     10 C         141.9478  144.3296  162.7529 C.ar    1  UNL1        0.1674
     11 H         145.1373  142.8564  160.3337 H       1  UNL1        0.1438
     12 H         146.1017  142.3040  161.6269 H       1  UNL1        0.1438
     13 C         139.5702  145.5338  162.5482 C.3     1  UNL1        0.1384
     14 C         138.6270  144.6411  164.7984 C.3     1  UNL1        0.0342
     15 C         138.6024  144.6678  163.2989 C.3     1  UNL1        0.1387
     16 O         137.6099  143.8286  162.5500 O.3     1  UNL1       -0.3426
     17 C         138.0228  142.5001  161.9893 C.3     1  UNL1        0.2577
     18 P         138.0852  141.2960  162.8816 P.3     1  UNL1        0.3665
     19 O         138.1477  140.0919  163.7740 O.2     1  UNL1       -0.2556
     20 O         139.5700  141.2240  162.6806 O.3     1  UNL1       -0.3220
     21 O         136.6005  141.3680  163.0826 O.3     1  UNL1       -0.3220
     22 H         139.9280  140.4744  163.1813 H       1  UNL1        0.2198
     23 H         136.3185  140.6494  163.6700 H       1  UNL1        0.2198
@<TRIPOS>BOND
     1    15    14    1
     2    15    13    1
     3    13     1    1
     4     1     2   ar
     5     2     3   ar
     6     3     4   ar
     7     4     5   ar
     8     5     6    1
     9     5     7   ar
    10     7     8   ar
    11     8     9   ar
    12     9    10   ar
    13    15    16    1
    14    16    17    1
    15    17    18    1
    16    18    19    2
    17    18    20    1
    18    18    21    1
    19    10     1   ar
    20    10     4   ar
    21     6    11    1
    22     6    12    1
    23    20    22    1
    24    21    23    1
@<TRIPOS>MOLECULE
*****
 23 24 0 0 0
SMALL
GASTEIGER

@<TRIPOS>ATOM
      1 N         141.5861  141.7115  166.0306 N.ar    1  UNL1       -0.2918
      2 C         142.9674  142.2097  165.7245 C.ar    1  UNL1        0.1798
      3 N         142.8386  143.4447  164.8828 N.ar    1  UNL1       -0.2195
      4 C         141.3778  143.7096  164.6688 C.ar    1  UNL1        0.1481
      5 C         140.6525  144.7879  163.9196 C.ar    1  UNL1        0.1480
      6 N         141.4267  145.8590  163.2102 N.pl3   1  UNL1       -0.3413
      7 N         139.1531  144.7949  163.8798 N.ar    1  UNL1       -0.2078
      8 C         138.3790  143.7237  164.5892 C.ar    1  UNL1        0.2015
      9 N         139.1042  142.6455  165.3384 N.ar    1  UNL1       -0.2048
     10 C         140.6037  142.6384  165.3782 C.ar    1  UNL1        0.1674
     11 H         142.4108  145.8544  163.2363 H       1  UNL1        0.1438
     12 H         140.9506  146.5667  162.7185 H       1  UNL1        0.1438
     13 C         141.2467  140.4991  166.8461 C.3     1  UNL1        0.1384
     14 C         143.1691  138.7571  166.9885 C.3     1  UNL1        0.0342
     15 C         142.3148  139.8050  167.6383 C.3     1  UNL1        0.1387
     16 O         142.5286  140.1588  169.0802 O.3     1  UNL1       -0.3426
     17 C         141.4360  139.9225  170.0804 C.3     1  UNL1        0.2577
     18 P         141.0257  141.0204  171.0164 P.3     1  UNL1        0.3665
     19 O         140.6153  142.1184  171.9524 O.2     1  UNL1       -0.2556
     20 O         139.8691  141.3518  170.1206 O.3     1  UNL1       -0.3220
     21 O         142.1823  140.6890  171.9122 O.3     1  UNL1       -0.3220
     22 H         139.3696  142.0927  170.4982 H       1  UNL1        0.2198
     23 H         142.1814  141.2870  172.6760 H       1  UNL1        0.2198
@<TRIPOS>BOND
     1    15    14    1
     2    15    13    1
     3    13     1    1
     4     1     2   ar
     5     2     3   ar
     6     3     4   ar
     7     4     5   ar
     8     5     6    1
     9     5     7   ar
    10     7     8   ar
    11     8     9   ar
    12     9    10   ar
    13    15    16    1
    14    16    17    1
    15    17    18    1
    16    18    19    2
    17    18    20    1
    18    18    21    1
    19    10     1   ar
    20    10     4   ar
    21     6    11    1
    22     6    12    1
    23    20    22    1
    24    21    23    1
@<TRIPOS>MOLECULE
*****
 23 24 0 0 0
SMALL
GASTEIGER

@<TRIPOS>ATOM
      1 N         139.7867  141.3238  166.6389 N.ar    1  UNL1       -0.2918
      2 C         139.1109  139.9851  166.6745 C.ar    1  UNL1        0.1798
      3 N         139.1430  139.4872  168.0891 N.ar    1  UNL1       -0.2195
      4 C         139.8386  140.5182  168.9277 C.ar    1  UNL1        0.1481
      5 C         140.1611  140.5700  170.3917 C.ar    1  UNL1        0.1480
      6 N         139.7633  139.4350  171.2880 N.pl3   1  UNL1       -0.3413
      7 N         140.8815  141.7569  170.9594 N.ar    1  UNL1       -0.2078
      8 C         141.2793  142.8920  170.0631 C.ar    1  UNL1        0.2015
      9 N         140.9568  142.8402  168.5991 N.ar    1  UNL1       -0.2048
     10 C         140.2364  141.6533  168.0314 C.ar    1  UNL1        0.1674
     11 H         139.2905  138.6559  170.9154 H       1  UNL1        0.1438
     12 H         139.9750  139.4690  172.2489 H       1  UNL1        0.1438
     13 C         139.9790  142.1823  165.4240 C.3     1  UNL1        0.1384
     14 C         139.0917  144.6155  165.2170 C.3     1  UNL1        0.0342
     15 C         138.9046  143.1422  165.0062 C.3     1  UNL1        0.1387
     16 O         137.6432  142.6287  164.3776 O.3     1  UNL1       -0.3426
     17 C         137.7030  141.8799  163.0793 C.3     1  UNL1        0.2577
     18 P         138.1954  142.5661  161.8397 P.3     1  UNL1        0.3665
     19 O         138.6878  143.2523  160.6000 O.2     1  UNL1       -0.2556
     20 O         139.1150  141.4129  161.5666 O.3     1  UNL1       -0.3220
     21 O         137.2759  143.7193  162.1127 O.3     1  UNL1       -0.3220
     22 H         139.6134  141.5827  160.7520 H       1  UNL1        0.2198
     23 H         137.3778  144.3862  161.4158 H       1  UNL1        0.2198
@<TRIPOS>BOND
     1    15    14    1
     2    15    13    1
     3    13     1    1
     4     1     2   ar
     5     2     3   ar
     6     3     4   ar
     7     4     5   ar
     8     5     6    1
     9     5     7   ar
    10     7     8   ar
    11     8     9   ar
    12     9    10   ar
    13    15    16    1
    14    16    17    1
    15    17    18    1
    16    18    19    2
    17    18    20    1
    18    18    21    1
    19    10     1   ar
    20    10     4   ar
    21     6    11    1
    22     6    12    1
    23    20    22    1
    24    21    23    1
@<TRIPOS>MOLECULE
*****
 23 24 0 0 0
SMALL
GASTEIGER

@<TRIPOS>ATOM
      1 N         140.6251  141.0347  166.0316 N.ar    1  UNL1       -0.2918
      2 C         141.9106  141.7846  166.2188 C.ar    1  UNL1        0.1798
      3 N         141.7758  143.1132  165.5356 N.ar    1  UNL1       -0.2195
      4 C         140.4071  143.1843  164.9262 C.ar    1  UNL1        0.1481
      5 C         139.7164  144.2528  164.1317 C.ar    1  UNL1        0.1480
      6 N         140.4276  145.5375  163.8252 N.pl3   1  UNL1       -0.3413
      7 N         138.3146  144.0367  163.6438 N.ar    1  UNL1       -0.2078
      8 C         137.6034  142.7521  163.9503 C.ar    1  UNL1        0.2015
      9 N         138.2941  141.6836  164.7448 N.ar    1  UNL1       -0.2048
     10 C         139.6959  141.8997  165.2327 C.ar    1  UNL1        0.1674
     11 H         141.3477  145.6793  164.1454 H       1  UNL1        0.1438
     12 H         139.9743  146.2388  163.3037 H       1  UNL1        0.1438
     13 C         140.3221  139.6608  166.5519 C.3     1  UNL1        0.1384
     14 C         137.8744  138.8344  166.8278 C.3     1  UNL1        0.0342
     15 C         139.1167  139.4350  167.4158 C.3     1  UNL1        0.1387
     16 O         139.1539  139.8098  168.8678 O.3     1  UNL1       -0.3426
     17 C         140.4677  140.0784  169.5397 C.3     1  UNL1        0.2577
     18 P         140.5500  141.0812  170.6523 P.3     1  UNL1        0.3665
     19 O         140.6323  142.0839  171.7648 O.2     1  UNL1       -0.2556
     20 O         140.8481  142.1621  169.6559 O.3     1  UNL1       -0.3220
     21 O         140.2519  140.0002  171.6486 O.3     1  UNL1       -0.3220
     22 H         140.9626  143.0065  170.1195 H       1  UNL1        0.2198
     23 H         140.2378  140.3786  172.5416 H       1  UNL1        0.2198
@<TRIPOS>BOND
     1    15    14    1
     2    15    13    1
     3    13     1    1
     4     1     2   ar
     5     2     3   ar
     6     3     4   ar
     7     4     5   ar
     8     5     6    1
     9     5     7   ar
    10     7     8   ar
    11     8     9   ar
    12     9    10   ar
    13    15    16    1
    14    16    17    1
    15    17    18    1
    16    18    19    2
    17    18    20    1
    18    18    21    1
    19    10     1   ar
    20    10     4   ar
    21     6    11    1
    22     6    12    1
    23    20    22    1
    24    21    23    1
@<TRIPOS>MOLECULE
*****
 23 24 0 0 0
SMALL
GASTEIGER

@<TRIPOS>ATOM
      1 N         137.9517  142.5151  162.8531 N.ar    1  UNL1       -0.2918
      2 C         137.9223  142.2552  161.3760 C.ar    1  UNL1        0.1798
      3 N         138.1086  140.7825  161.1608 N.ar    1  UNL1       -0.2195
      4 C         138.2530  140.1321  162.5048 C.ar    1  UNL1        0.1481
      5 C         138.4604  138.7033  162.9113 C.ar    1  UNL1        0.1480
      6 N         138.5574  137.6324  161.8654 N.pl3   1  UNL1       -0.3413
      7 N         138.5707  138.3452  164.3637 N.ar    1  UNL1       -0.2078
      8 C         138.4737  139.4161  165.4096 C.ar    1  UNL1        0.2015
      9 N         138.2664  140.8449  165.0031 N.ar    1  UNL1       -0.2048
     10 C         138.1560  141.2030  163.5507 C.ar    1  UNL1        0.1674
     11 H         138.4850  137.8674  160.9121 H       1  UNL1        0.1438
     12 H         138.6934  136.6946  162.1322 H       1  UNL1        0.1438
     13 C         137.8027  143.8523  163.5161 C.3     1  UNL1        0.1384
     14 C         138.5559  145.0507  165.6949 C.3     1  UNL1        0.0342
     15 C         138.8963  144.3781  164.3981 C.3     1  UNL1        0.1387
     16 O         140.3303  144.2313  163.9831 O.3     1  UNL1       -0.3426
     17 C         140.9588  145.2527  163.0822 C.3     1  UNL1        0.2577
     18 P         140.3940  145.4948  161.7139 P.3     1  UNL1        0.3665
     19 O         139.8292  145.7369  160.3455 O.2     1  UNL1       -0.2556
     20 O         139.9967  146.8821  162.1233 O.3     1  UNL1       -0.3220
     21 O         140.7912  144.1075  161.3045 O.3     1  UNL1       -0.3220
     22 H         139.5668  147.3287  161.3773 H       1  UNL1        0.2198
     23 H         140.5325  143.9561  160.3820 H       1  UNL1        0.2198
@<TRIPOS>BOND
     1    15    14    1
     2    15    13    1
     3    13     1    1
     4     1     2   ar
     5     2     3   ar
     6     3     4   ar
     7     4     5   ar
     8     5     6    1
     9     5     7   ar
    10     7     8   ar
    11     8     9   ar
    12     9    10   ar
    13    15    16    1
    14    16    17    1
    15    17    18    1
    16    18    19    2
    17    18    20    1
    18    18    21    1
    19    10     1   ar
    20    10     4   ar
    21     6    11    1
    22     6    12    1
    23    20    22    1
    24    21    23    1
