@<TRIPOS>MOLECULE
*****
 25 27 0 0 0
SMALL
GASTEIGER

@<TRIPOS>ATOM
      1 N         140.8670  141.6687  166.9306 N.3     1  UNL1       -0.2700
      2 C         141.2864  142.3580  168.1952 C.3     1  UNL1        0.0628
      3 C         140.3541  143.3204  168.8694 C.3     1  UNL1        0.0481
      4 C         140.7735  144.0096  170.1339 C.3     1  UNL1        0.1435
      5 O         142.1252  143.7364  170.7242 O.3     1  UNL1       -0.3537
      6 C         143.0574  142.7740  170.0500 C.3     1  UNL1        0.1435
      7 C         142.6380  142.0848  168.7855 C.3     1  UNL1        0.0481
      8 C         139.7886  140.6267  166.9666 C.3     1  UNL1        0.0748
      9 C         139.0097  140.1229  165.7878 C.3     1  UNL1        0.0344
     10 C         138.0395  139.0904  166.2803 C.3     1  UNL1        0.0700
     11 N         138.2189  138.9559  167.7635 N.3     1  UNL1       -0.2963
     12 C         139.2999  139.9055  168.1876 C.3     1  UNL1        0.0847
     13 H         138.4880  137.9996  167.9944 H       1  UNL1        0.1233
     14 C         141.5260  142.0215  165.6301 C.3     1  UNL1        0.0991
     15 F         146.3242  141.9012  163.6395 F       1  UNL1       -0.2042
     16 C         145.1161  141.1817  164.1618 C.ar    1  UNL1        0.1437
     17 C         145.0989  139.6827  164.2110 C.ar    1  UNL1        0.0296
     18 C         143.8908  138.9632  164.7333 C.ar    1  UNL1        0.0020
     19 C         142.6999  139.7428  165.2063 C.ar    1  UNL1       -0.0028
     20 C         142.7170  141.2419  165.1571 C.ar    1  UNL1       -0.0000
     21 C         143.9251  141.9614  164.6348 C.ar    1  UNL1        0.0962
     22 C         143.9423  143.4605  164.5855 C.3     1  UNL1        0.4204
     23 F         143.9594  144.9596  164.5363 F       1  UNL1       -0.1658
     24 F         144.5254  143.4992  165.9670 F       1  UNL1       -0.1658
     25 F         143.3591  143.4217  163.2041 F       1  UNL1       -0.1658
@<TRIPOS>BOND
     1    15    16    1
     2    16    17   ar
     3    17    18   ar
     4    18    19   ar
     5    19    20   ar
     6    20    14    1
     7    14     1    1
     8     1     2    1
     9     2     3    1
    10     3     4    1
    11     4     5    1
    12     5     6    1
    13     6     7    1
    14     8     1    1
    15     8     9    1
    16     9    10    1
    17    10    11    1
    18    11    12    1
    19    20    21   ar
    20    21    22    1
    21    22    23    1
    22    22    24    1
    23    22    25    1
    24    21    16   ar
    25     7     2    1
    26    12     8    1
    27    11    13    1
@<TRIPOS>MOLECULE
*****
 25 27 0 0 0
SMALL
GASTEIGER

@<TRIPOS>ATOM
      1 N         141.0864  141.4487  166.9502 N.3     1  UNL1       -0.2700
      2 C         141.4257  142.2093  168.1978 C.3     1  UNL1        0.0628
      3 C         142.7565  142.0086  168.8600 C.3     1  UNL1        0.0481
      4 C         143.0957  142.7691  170.1076 C.3     1  UNL1        0.1435
      5 O         142.1041  143.7305  170.6929 O.3     1  UNL1       -0.3537
      6 C         140.7733  143.9312  170.0307 C.3     1  UNL1        0.1435
      7 C         140.4341  143.1707  168.7831 C.3     1  UNL1        0.0481
      8 C         139.9337  140.4889  166.9471 C.3     1  UNL1        0.0748
      9 C         139.1938  140.0035  165.7359 C.3     1  UNL1        0.0344
     10 C         138.1213  139.0605  166.1949 C.3     1  UNL1        0.0700
     11 N         138.1984  138.9632  167.6897 N.3     1  UNL1       -0.2963
     12 C         139.3184  139.8460  168.1546 C.3     1  UNL1        0.0847
     13 H         138.3812  137.9981  167.9648 H       1  UNL1        0.1233
     14 C         141.8998  141.6480  165.7058 C.3     1  UNL1        0.0991
     15 F         144.1519  145.4299  162.9443 F       1  UNL1       -0.2042
     16 C         142.9253  144.8261  163.5614 C.ar    1  UNL1        0.1437
     17 C         141.5980  145.5095  163.4149 C.ar    1  UNL1        0.0296
     18 C         140.3714  144.9057  164.0319 C.ar    1  UNL1        0.0020
     19 C         140.4720  143.6186  164.7956 C.ar    1  UNL1       -0.0028
     20 C         141.7992  142.9352  164.9421 C.ar    1  UNL1       -0.0000
     21 C         143.0258  143.5390  164.3250 C.ar    1  UNL1        0.0962
     22 C         144.3531  142.8556  164.4716 C.3     1  UNL1        0.4204
     23 F         145.6803  142.1722  164.6181 F       1  UNL1       -0.1658
     24 F         144.1001  142.0926  163.2052 F       1  UNL1       -0.1658
     25 F         144.6061  143.6186  165.7380 F       1  UNL1       -0.1658
@<TRIPOS>BOND
     1    15    16    1
     2    16    17   ar
     3    17    18   ar
     4    18    19   ar
     5    19    20   ar
     6    20    14    1
     7    14     1    1
     8     1     2    1
     9     2     3    1
    10     3     4    1
    11     4     5    1
    12     5     6    1
    13     6     7    1
    14     8     1    1
    15     8     9    1
    16     9    10    1
    17    10    11    1
    18    11    12    1
    19    20    21   ar
    20    21    22    1
    21    22    23    1
    22    22    24    1
    23    22    25    1
    24    21    16   ar
    25     7     2    1
    26    12     8    1
    27    11    13    1
@<TRIPOS>MOLECULE
*****
 25 27 0 0 0
SMALL
GASTEIGER

@<TRIPOS>ATOM
      1 N         140.6141  141.8247  166.6468 N.3     1  UNL1       -0.2700
      2 C         140.4140  141.6807  168.1265 C.3     1  UNL1        0.0628
      3 C         140.2303  140.3197  168.7295 C.3     1  UNL1        0.0481
      4 C         140.0302  140.1758  170.2091 C.3     1  UNL1        0.1435
      5 O         140.0139  141.3929  171.0856 O.3     1  UNL1       -0.3537
      6 C         140.1976  142.7540  170.4826 C.3     1  UNL1        0.1435
      7 C         140.3977  142.8979  169.0030 C.3     1  UNL1        0.0481
      8 C         139.5439  141.3731  165.6978 C.3     1  UNL1        0.0748
      9 C         139.2598  139.9552  165.2994 C.3     1  UNL1        0.0344
     10 C         138.1101  139.9658  164.3360 C.3     1  UNL1        0.0700
     11 N         137.6837  141.3904  164.1389 N.3     1  UNL1       -0.2963
     12 C         138.5698  142.2601  164.9806 C.3     1  UNL1        0.0847
     13 H         136.7120  141.5039  164.4277 H       1  UNL1        0.1233
     14 C         141.8845  142.4203  166.1162 C.3     1  UNL1        0.0991
     15 F         146.2283  141.8370  163.3249 F       1  UNL1       -0.2042
     16 C         145.1110  141.2410  164.1291 C.ar    1  UNL1        0.1437
     17 C         145.0484  139.7575  164.3417 C.ar    1  UNL1        0.0296
     18 C         143.9312  139.1615  165.1458 C.ar    1  UNL1        0.0020
     19 C         142.8765  140.0491  165.7373 C.ar    1  UNL1       -0.0028
     20 C         142.9392  141.5327  165.5247 C.ar    1  UNL1       -0.0000
     21 C         144.0564  142.1286  164.7206 C.ar    1  UNL1        0.0962
     22 C         144.1190  143.6122  164.5080 C.3     1  UNL1        0.4204
     23 F         144.1816  145.0957  164.2954 F       1  UNL1       -0.1658
     24 F         144.9424  143.7559  165.7535 F       1  UNL1       -0.1658
     25 F         143.2956  143.4684  163.2624 F       1  UNL1       -0.1658
@<TRIPOS>BOND
     1    15    16    1
     2    16    17   ar
     3    17    18   ar
     4    18    19   ar
     5    19    20   ar
     6    20    14    1
     7    14     1    1
     8     1     2    1
     9     2     3    1
    10     3     4    1
    11     4     5    1
    12     5     6    1
    13     6     7    1
    14     8     1    1
    15     8     9    1
    16     9    10    1
    17    10    11    1
    18    11    12    1
    19    20    21   ar
    20    21    22    1
    21    22    23    1
    22    22    24    1
    23    22    25    1
    24    21    16   ar
    25     7     2    1
    26    12     8    1
    27    11    13    1
@<TRIPOS>MOLECULE
*****
 25 27 0 0 0
SMALL
GASTEIGER

@<TRIPOS>ATOM
      1 N         141.0357  141.1319  167.0766 N.3     1  UNL1       -0.2700
      2 C         141.3986  141.9997  168.2451 C.3     1  UNL1        0.0628
      3 C         140.4294  143.0302  168.7437 C.3     1  UNL1        0.0481
      4 C         140.7924  143.8979  169.9121 C.3     1  UNL1        0.1435
      5 O         142.1246  143.7351  170.5820 O.3     1  UNL1       -0.3537
      6 C         143.0938  142.7046  170.0835 C.3     1  UNL1        0.1435
      7 C         142.7308  141.8369  168.9150 C.3     1  UNL1        0.0481
      8 C         139.8196  140.2561  167.1420 C.3     1  UNL1        0.0748
      9 C         139.0801  139.6854  165.9684 C.3     1  UNL1        0.0344
     10 C         137.9330  138.8738  166.4935 C.3     1  UNL1        0.0700
     11 N         137.9637  138.9430  167.9916 N.3     1  UNL1       -0.2963
     12 C         139.1297  139.7973  168.3923 C.3     1  UNL1        0.0847
     13 H         138.0718  138.0058  168.3792 H       1  UNL1        0.1233
     14 C         141.8887  141.1400  165.8429 C.3     1  UNL1        0.0991
     15 F         140.9411  145.5666  163.2919 F       1  UNL1       -0.2042
     16 C         141.8991  144.6541  163.9988 C.ar    1  UNL1        0.1437
     17 C         143.3413  145.0426  164.1371 C.ar    1  UNL1        0.0296
     18 C         144.2993  144.1302  164.8440 C.ar    1  UNL1        0.0020
     19 C         143.8151  142.8293  165.4126 C.ar    1  UNL1       -0.0028
     20 C         142.3729  142.4409  165.2743 C.ar    1  UNL1       -0.0000
     21 C         141.4149  143.3533  164.5674 C.ar    1  UNL1        0.0962
     22 C         139.9727  142.9648  164.4291 C.3     1  UNL1        0.4204
     23 F         138.5305  142.5764  164.2908 F       1  UNL1       -0.1658
     24 F         140.3022  142.1818  163.1929 F       1  UNL1       -0.1658
     25 F         139.6432  143.7479  165.6654 F       1  UNL1       -0.1658
@<TRIPOS>BOND
     1    15    16    1
     2    16    17   ar
     3    17    18   ar
     4    18    19   ar
     5    19    20   ar
     6    20    14    1
     7    14     1    1
     8     1     2    1
     9     2     3    1
    10     3     4    1
    11     4     5    1
    12     5     6    1
    13     6     7    1
    14     8     1    1
    15     8     9    1
    16     9    10    1
    17    10    11    1
    18    11    12    1
    19    20    21   ar
    20    21    22    1
    21    22    23    1
    22    22    24    1
    23    22    25    1
    24    21    16   ar
    25     7     2    1
    26    12     8    1
    27    11    13    1
@<TRIPOS>MOLECULE
*****
 25 27 0 0 0
SMALL
GASTEIGER

@<TRIPOS>ATOM
      1 N         140.8568  142.2263  167.0550 N.3     1  UNL1       -0.2700
      2 C         139.9194  142.4510  165.9056 C.3     1  UNL1        0.0628
      3 C         139.6316  143.8455  165.4341 C.3     1  UNL1        0.0481
      4 C         138.6944  144.0701  164.2848 C.3     1  UNL1        0.1435
      5 O         138.0449  142.9002  163.6069 O.3     1  UNL1       -0.3537
      6 C         138.3327  141.5056  164.0785 C.3     1  UNL1        0.1435
      7 C         139.2700  141.2810  165.2278 C.3     1  UNL1        0.0481
      8 C         140.3278  141.7311  168.3684 C.3     1  UNL1        0.0748
      9 C         139.8901  140.3285  168.6703 C.3     1  UNL1        0.0344
     10 C         139.4354  140.2822  170.0990 C.3     1  UNL1        0.0700
     11 N         139.5921  141.6561  170.6801 N.3     1  UNL1       -0.2963
     12 C         140.1436  142.5516  169.6105 C.3     1  UNL1        0.0847
     13 H         140.2347  141.6260  171.4716 H       1  UNL1        0.1233
     14 C         142.3230  142.4968  166.8910 C.3     1  UNL1        0.0991
     15 F         145.7855  142.0607  163.0411 F       1  UNL1       -0.2042
     16 C         144.8770  141.4223  164.0497 C.ar    1  UNL1        0.1437
     17 C         144.7912  139.9276  164.1420 C.ar    1  UNL1        0.0296
     18 C         143.8827  139.2893  165.1505 C.ar    1  UNL1        0.0020
     19 C         143.0600  140.1457  166.0668 C.ar    1  UNL1       -0.0028
     20 C         143.1458  141.6404  165.9746 C.ar    1  UNL1       -0.0000
     21 C         144.0543  142.2787  164.9660 C.ar    1  UNL1        0.0962
     22 C         144.1400  143.7734  164.8738 C.3     1  UNL1        0.4204
     23 F         144.2258  145.2681  164.7816 F       1  UNL1       -0.1658
     24 F         143.0362  143.7741  163.8581 F       1  UNL1       -0.1658
     25 F         145.2438  143.7728  165.8895 F       1  UNL1       -0.1658
@<TRIPOS>BOND
     1    15    16    1
     2    16    17   ar
     3    17    18   ar
     4    18    19   ar
     5    19    20   ar
     6    20    14    1
     7    14     1    1
     8     1     2    1
     9     2     3    1
    10     3     4    1
    11     4     5    1
    12     5     6    1
    13     6     7    1
    14     8     1    1
    15     8     9    1
    16     9    10    1
    17    10    11    1
    18    11    12    1
    19    20    21   ar
    20    21    22    1
    21    22    23    1
    22    22    24    1
    23    22    25    1
    24    21    16   ar
    25     7     2    1
    26    12     8    1
    27    11    13    1
@<TRIPOS>MOLECULE
*****
 25 27 0 0 0
SMALL
GASTEIGER

@<TRIPOS>ATOM
      1 N         141.2537  140.6785  166.7971 N.3     1  UNL1       -0.2700
      2 C         140.5571  141.0833  168.0625 C.3     1  UNL1        0.0628
      3 C         139.6203  140.1286  168.7413 C.3     1  UNL1        0.0481
      4 C         138.9238  140.5334  170.0066 C.3     1  UNL1        0.1435
      5 O         139.1640  141.8930  170.5930 O.3     1  UNL1       -0.3537
      6 C         140.1007  142.8478  169.9141 C.3     1  UNL1        0.1435
      7 C         140.7973  142.4429  168.6488 C.3     1  UNL1        0.0481
      8 C         141.7788  141.7269  165.8617 C.3     1  UNL1        0.0748
      9 C         140.9651  142.5285  164.8895 C.3     1  UNL1        0.0344
     10 C         141.8933  143.4549  164.1612 C.3     1  UNL1        0.0700
     11 N         143.2807  143.2258  164.6833 N.3     1  UNL1       -0.2963
     12 C         143.2099  142.1579  165.7343 C.3     1  UNL1        0.0847
     13 H         143.6444  144.0878  165.0897 H       1  UNL1        0.1233
     14 C         141.4251  139.2253  166.4673 C.3     1  UNL1        0.0991
     15 F         138.1920  137.6914  162.6997 F       1  UNL1       -0.2042
     16 C         139.5839  137.9760  163.1811 C.ar    1  UNL1        0.1437
     17 C         140.7511  137.7784  162.2599 C.ar    1  UNL1        0.0296
     18 C         142.1430  138.0630  162.7412 C.ar    1  UNL1        0.0020
     19 C         142.3676  138.5453  164.1437 C.ar    1  UNL1       -0.0028
     20 C         141.2004  138.7430  165.0648 C.ar    1  UNL1       -0.0000
     21 C         139.8085  138.4584  164.5835 C.ar    1  UNL1        0.0962
     22 C         138.6413  138.6560  165.5046 C.3     1  UNL1        0.4204
     23 F         137.4741  138.8537  166.4258 F       1  UNL1       -0.1658
     24 F         138.6250  140.1182  165.1702 F       1  UNL1       -0.1658
     25 F         138.6576  137.1939  165.8391 F       1  UNL1       -0.1658
@<TRIPOS>BOND
     1    15    16    1
     2    16    17   ar
     3    17    18   ar
     4    18    19   ar
     5    19    20   ar
     6    20    14    1
     7    14     1    1
     8     1     2    1
     9     2     3    1
    10     3     4    1
    11     4     5    1
    12     5     6    1
    13     6     7    1
    14     8     1    1
    15     8     9    1
    16     9    10    1
    17    10    11    1
    18    11    12    1
    19    20    21   ar
    20    21    22    1
    21    22    23    1
    22    22    24    1
    23    22    25    1
    24    21    16   ar
    25     7     2    1
    26    12     8    1
    27    11    13    1
@<TRIPOS>MOLECULE
*****
 25 27 0 0 0
SMALL
GASTEIGER

@<TRIPOS>ATOM
      1 N         139.7653  141.1342  164.0454 N.3     1  UNL1       -0.2700
      2 C         139.3810  140.5162  165.3572 C.3     1  UNL1        0.0628
      3 C         138.3493  139.4282  165.4000 C.3     1  UNL1        0.0481
      4 C         137.9650  138.8104  166.7117 C.3     1  UNL1        0.1435
      5 O         138.6125  139.2804  167.9805 O.3     1  UNL1       -0.3537
      6 C         139.6441  140.3684  167.9376 C.3     1  UNL1        0.1435
      7 C         140.0284  140.9863  166.6260 C.3     1  UNL1        0.0481
      8 C         139.0999  142.3985  163.5885 C.3     1  UNL1        0.0748
      9 C         139.4717  143.7907  164.0049 C.3     1  UNL1        0.0344
     10 C         138.5476  144.7453  163.3087 C.3     1  UNL1        0.0700
     11 N         137.6046  143.9430  162.4619 N.3     1  UNL1       -0.2963
     12 C         137.9460  142.4926  162.6348 C.3     1  UNL1        0.0847
     13 H         137.7076  144.2085  161.4824 H       1  UNL1        0.1233
     14 C         140.8149  140.4878  163.1908 C.3     1  UNL1        0.0991
     15 F         145.3523  138.7906  165.0699 F       1  UNL1       -0.2042
     16 C         144.5364  139.8705  164.4233 C.ar    1  UNL1        0.1437
     17 C         145.1733  141.1817  164.0696 C.ar    1  UNL1        0.0296
     18 C         144.3574  142.2616  163.4230 C.ar    1  UNL1        0.0020
     19 C         142.9047  142.0303  163.1301 C.ar    1  UNL1       -0.0028
     20 C         142.2677  140.7191  163.4837 C.ar    1  UNL1       -0.0000
     21 C         143.0836  139.6392  164.1303 C.ar    1  UNL1        0.0962
     22 C         142.4467  138.3280  164.4840 C.3     1  UNL1        0.4204
     23 F         141.8098  137.0168  164.8377 F       1  UNL1       -0.1658
     24 F         142.6515  137.8491  163.0773 F       1  UNL1       -0.1658
     25 F         142.2419  138.8069  165.8907 F       1  UNL1       -0.1658
@<TRIPOS>BOND
     1    15    16    1
     2    16    17   ar
     3    17    18   ar
     4    18    19   ar
     5    19    20   ar
     6    20    14    1
     7    14     1    1
     8     1     2    1
     9     2     3    1
    10     3     4    1
    11     4     5    1
    12     5     6    1
    13     6     7    1
    14     8     1    1
    15     8     9    1
    16     9    10    1
    17    10    11    1
    18    11    12    1
    19    20    21   ar
    20    21    22    1
    21    22    23    1
    22    22    24    1
    23    22    25    1
    24    21    16   ar
    25     7     2    1
    26    12     8    1
    27    11    13    1
@<TRIPOS>MOLECULE
*****
 25 27 0 0 0
SMALL
GASTEIGER

@<TRIPOS>ATOM
      1 N         139.4282  142.6933  164.8006 N.3     1  UNL1       -0.2700
      2 C         140.6005  142.5501  165.7255 C.3     1  UNL1        0.0628
      3 C         140.4233  142.7637  167.1995 C.3     1  UNL1        0.0481
      4 C         141.5956  142.6205  168.1243 C.3     1  UNL1        0.1435
      5 O         142.9450  142.2637  167.5750 O.3     1  UNL1       -0.3537
      6 C         143.1222  142.0502  166.1010 C.3     1  UNL1        0.1435
      7 C         141.9500  142.1934  165.1762 C.3     1  UNL1        0.0481
      8 C         139.3903  143.8156  163.8061 C.3     1  UNL1        0.0748
      9 C         140.4898  144.8028  163.5484 C.3     1  UNL1        0.0344
     10 C         140.0252  145.7451  162.4777 C.3     1  UNL1        0.0700
     11 N         138.6385  145.3403  162.0738 N.3     1  UNL1       -0.2963
     12 C         138.2461  144.1478  162.8948 C.3     1  UNL1        0.0847
     13 H         138.6232  145.0985  161.0830 H       1  UNL1        0.1233
     14 C         138.2940  141.7142  164.8702 C.3     1  UNL1        0.0991
     15 F         139.1661  136.6163  165.3718 F       1  UNL1       -0.2042
     16 C         138.8744  137.8053  164.5049 C.ar    1  UNL1        0.1437
     17 C         138.7270  137.6342  163.0220 C.ar    1  UNL1        0.0296
     18 C         138.4353  138.8231  162.1552 C.ar    1  UNL1        0.0020
     19 C         138.2910  140.1830  162.7713 C.ar    1  UNL1       -0.0028
     20 C         138.4384  140.3542  164.2542 C.ar    1  UNL1       -0.0000
     21 C         138.7301  139.1653  165.1210 C.ar    1  UNL1        0.0962
     22 C         138.8774  139.3364  166.6039 C.3     1  UNL1        0.4204
     23 F         139.0248  139.5075  168.0868 F       1  UNL1       -0.1658
     24 F         137.3983  139.1526  166.7721 F       1  UNL1       -0.1658
     25 F         140.3566  139.5202  166.4357 F       1  UNL1       -0.1658
@<TRIPOS>BOND
     1    15    16    1
     2    16    17   ar
     3    17    18   ar
     4    18    19   ar
     5    19    20   ar
     6    20    14    1
     7    14     1    1
     8     1     2    1
     9     2     3    1
    10     3     4    1
    11     4     5    1
    12     5     6    1
    13     6     7    1
    14     8     1    1
    15     8     9    1
    16     9    10    1
    17    10    11    1
    18    11    12    1
    19    20    21   ar
    20    21    22    1
    21    22    23    1
    22    22    24    1
    23    22    25    1
    24    21    16   ar
    25     7     2    1
    26    12     8    1
    27    11    13    1
@<TRIPOS>MOLECULE
*****
 25 27 0 0 0
SMALL
GASTEIGER

@<TRIPOS>ATOM
      1 N         140.6279  141.1249  166.6801 N.3     1  UNL1       -0.2700
      2 C         140.4355  141.3259  168.1541 C.3     1  UNL1        0.0628
      3 C         140.1729  140.1471  169.0438 C.3     1  UNL1        0.0481
      4 C         139.9805  140.3482  170.5177 C.3     1  UNL1        0.1435
      5 O         140.0506  141.7280  171.1020 O.3     1  UNL1       -0.3537
      6 C         140.3132  142.9067  170.2123 C.3     1  UNL1        0.1435
      7 C         140.5056  142.7056  168.7383 C.3     1  UNL1        0.0481
      8 C         141.3774  139.9264  166.1782 C.3     1  UNL1        0.0748
      9 C         142.7951  139.5691  166.5132 C.3     1  UNL1        0.0344
     10 C         143.1346  138.2966  165.7952 C.3     1  UNL1        0.0700
     11 N         141.9266  137.8674  165.0163 N.3     1  UNL1       -0.2963
     12 C         140.8406  138.8747  165.2530 C.3     1  UNL1        0.0847
     13 H         141.6201  136.9472  165.3321 H       1  UNL1        0.1233
     14 C         140.0710  142.1223  165.7081 C.3     1  UNL1        0.0991
     15 F         140.7615  146.2414  162.6167 F       1  UNL1       -0.2042
     16 C         141.3315  145.1527  163.4769 C.ar    1  UNL1        0.1437
     17 C         142.8166  145.0348  163.6516 C.ar    1  UNL1        0.0296
     18 C         143.3865  143.9461  164.5117 C.ar    1  UNL1        0.0020
     19 C         142.4713  142.9753  165.1972 C.ar    1  UNL1       -0.0028
     20 C         140.9862  143.0932  165.0226 C.ar    1  UNL1       -0.0000
     21 C         140.4163  144.1819  164.1624 C.ar    1  UNL1        0.0962
     22 C         138.9311  144.2998  163.9878 C.3     1  UNL1        0.4204
     23 F         137.4460  144.4177  163.8131 F       1  UNL1       -0.1658
     24 F         138.9947  143.3652  162.8162 F       1  UNL1       -0.1658
     25 F         138.8675  145.2343  165.1593 F       1  UNL1       -0.1658
@<TRIPOS>BOND
     1    15    16    1
     2    16    17   ar
     3    17    18   ar
     4    18    19   ar
     5    19    20   ar
     6    20    14    1
     7    14     1    1
     8     1     2    1
     9     2     3    1
    10     3     4    1
    11     4     5    1
    12     5     6    1
    13     6     7    1
    14     8     1    1
    15     8     9    1
    16     9    10    1
    17    10    11    1
    18    11    12    1
    19    20    21   ar
    20    21    22    1
    21    22    23    1
    22    22    24    1
    23    22    25    1
    24    21    16   ar
    25     7     2    1
    26    12     8    1
    27    11    13    1
