@<TRIPOS>MOLECULE
*****
 42 46 0 0 0
SMALL
GASTEIGER

@<TRIPOS>ATOM
      1 N         139.5313  139.5445  160.1196 N.3     1  UNL1       -0.2688
      2 C         139.1499  140.4396  158.9779 C.3     1  UNL1        0.0741
      3 C         140.2137  141.1461  158.1910 C.3     1  UNL1        0.0369
      4 C         141.6589  140.9574  158.5458 C.3     1  UNL1        0.0747
      5 C         142.0403  140.0623  159.6874 C.3     1  UNL1        0.0369
      6 C         140.9765  139.3559  160.4743 C.3     1  UNL1        0.0741
      7 N         142.7227  141.6639  157.7589 N.am    1  UNL1       -0.2999
      8 C         143.4936  140.9234  156.7066 C.2     1  UNL1        0.2806
      9 O         143.2007  139.4765  156.4411 O.2     1  UNL1       -0.2668
     10 H         142.9149  142.6136  157.9331 H       1  UNL1        0.1498
     11 C         144.5574  141.6300  155.9197 C.ar    1  UNL1        0.2014
     12 C         144.1902  142.7717  155.0187 C.ar    1  UNL1        0.0843
     13 C         145.2539  143.4783  154.2318 C.ar    1  UNL1        0.2018
     14 O         144.8867  144.6200  153.3309 O.2     1  UNL1       -0.2864
     15 C         146.6849  143.0431  154.3459 C.ar    1  UNL1        0.0737
     16 C         147.7487  143.7497  153.5590 C.ar    1  UNL1        0.0085
     17 C         149.1796  143.3145  153.6730 C.ar    1  UNL1        0.0299
     18 C         149.5468  142.1728  154.5739 C.ar    1  UNL1        0.1432
     19 F         150.9778  141.7376  154.6879 F       1  UNL1       -0.2041
     20 C         148.4831  141.4662  155.3608 C.ar    1  UNL1        0.0672
     21 C         147.0521  141.9014  155.2468 C.ar    1  UNL1        0.1508
     22 O         145.9883  141.1948  156.0337 O.2     1  UNL1       -0.4486
     23 C         138.4675  138.8380  160.9065 C.3     1  UNL1        0.1022
     24 C         137.9054  140.1428  163.0816 C.ar    1  UNL1        0.1361
     25 C         137.8978  140.2298  164.5791 C.ar    1  UNL1        0.0411
     26 C         138.4446  139.0990  165.3988 C.ar    1  UNL1        0.0563
     27 C         138.9991  137.8811  164.7211 C.ar    1  UNL1        0.0044
     28 C         139.0067  137.7941  163.2237 C.ar    1  UNL1        0.0002
     29 C         138.4599  138.9250  162.4039 C.ar    1  UNL1        0.0279
     30 C         138.4370  139.1859  166.8963 C.2     1  UNL1        0.2460
     31 O         137.3930  138.4524  167.6849 O.2     1  UNL1       -0.2701
     32 N         139.4734  140.0065  167.6052 N.am    1  UNL1       -0.2994
     33 H         140.1586  140.4880  167.0876 H       1  UNL1        0.1498
     34 C         139.4657  140.0935  169.1026 C.3     1  UNL1        0.1070
     35 C         140.7431  139.9226  169.8703 C.3     1  UNL1        0.0936
     36 N         141.7176  141.0587  169.9671 N.3     1  UNL1       -0.2712
     37 C         141.3894  142.4719  170.3484 C.3     1  UNL1        0.0722
     38 C         142.6605  143.2677  170.3164 C.3     1  UNL1        0.0188
     39 C         143.7743  142.3465  169.9154 C.3     1  UNL1        0.0188
     40 C         143.1915  140.9813  169.6995 C.3     1  UNL1        0.0722
     41 C         138.1701  142.5202  162.0675 C.3     1  UNL1        0.2525
     42 O         137.3585  141.2738  162.2619 O.3     1  UNL1       -0.4717
@<TRIPOS>BOND
     1    41    42    1
     2    42    24    1
     3    24    25   ar
     4    25    26   ar
     5    26    30    1
     6    30    31    2
     7    30    32   am
     8    32    34    1
     9    34    35    1
    10    35    36    1
    11    36    37    1
    12    37    38    1
    13    38    39    1
    14    39    40    1
    15    26    27   ar
    16    27    28   ar
    17    28    29   ar
    18    29    23    1
    19    23     1    1
    20     1     2    1
    21     2     3    1
    22     3     4    1
    23     4     7    1
    24     7     8   am
    25     8     9    2
    26     8    11    1
    27    11    12   ar
    28    12    13   ar
    29    13    14    2
    30    13    15   ar
    31    15    16   ar
    32    16    17   ar
    33    17    18   ar
    34    18    19    1
    35    18    20   ar
    36    20    21   ar
    37    21    22   ar
    38     4     5    1
    39     5     6    1
    40    29    24   ar
    41     6     1    1
    42    40    36    1
    43    22    11   ar
    44    21    15   ar
    45    32    33    1
    46     7    10    1
@<TRIPOS>MOLECULE
*****
 42 46 0 0 0
SMALL
GASTEIGER

@<TRIPOS>ATOM
      1 N         141.8800  138.1531  158.2456 N.3     1  UNL1       -0.2688
      2 C         142.9450  138.3711  159.2792 C.3     1  UNL1        0.0741
      3 C         142.5695  138.8253  160.6587 C.3     1  UNL1        0.0369
      4 C         141.1292  139.0614  161.0045 C.3     1  UNL1        0.0747
      5 C         140.0642  138.8434  159.9709 C.3     1  UNL1        0.0369
      6 C         140.4396  138.3893  158.5915 C.3     1  UNL1        0.0741
      7 N         140.7538  139.5156  162.3839 N.am    1  UNL1       -0.2999
      8 C         140.4816  138.5047  163.4582 C.2     1  UNL1        0.2806
      9 O         140.5847  137.0397  163.1531 O.2     1  UNL1       -0.2668
     10 H         140.6861  140.4771  162.5841 H       1  UNL1        0.1498
     11 C         140.1062  138.9589  164.8376 C.ar    1  UNL1        0.2014
     12 C         138.8903  138.3923  165.5089 C.ar    1  UNL1        0.0843
     13 C         138.5149  138.8465  166.8883 C.ar    1  UNL1        0.2018
     14 O         137.2990  138.2798  167.5595 O.2     1  UNL1       -0.2864
     15 C         139.3554  139.8673  167.5965 C.ar    1  UNL1        0.0737
     16 C         138.9800  140.3215  168.9759 C.ar    1  UNL1        0.0085
     17 C         139.8205  141.3423  169.6840 C.ar    1  UNL1        0.0299
     18 C         141.0364  141.9089  169.0128 C.ar    1  UNL1        0.1432
     19 F         141.8769  142.9298  169.7210 F       1  UNL1       -0.2041
     20 C         141.4118  141.4548  167.6334 C.ar    1  UNL1        0.0672
     21 C         140.5713  140.4340  166.9252 C.ar    1  UNL1        0.1508
     22 O         140.9467  139.9797  165.5458 O.2     1  UNL1       -0.4486
     23 C         142.2554  137.6989  156.8662 C.3     1  UNL1        0.1022
     24 C         141.2643  135.7259  155.4969 C.ar    1  UNL1        0.1361
     25 C         141.2383  134.2656  155.1550 C.ar    1  UNL1        0.0411
     26 C         142.1774  133.3181  155.8406 C.ar    1  UNL1        0.0563
     27 C         143.1425  133.8308  156.8681 C.ar    1  UNL1        0.0044
     28 C         143.1685  135.2910  157.2099 C.ar    1  UNL1        0.0002
     29 C         142.2294  136.2386  156.5243 C.ar    1  UNL1        0.0279
     30 C         142.1515  131.8578  155.4988 C.2     1  UNL1        0.2460
     31 O         140.8729  131.2155  155.0486 O.2     1  UNL1       -0.2701
     32 N         143.4041  131.0397  155.6070 N.am    1  UNL1       -0.2994
     33 H         144.2433  131.4613  155.9025 H       1  UNL1        0.1498
     34 C         143.3781  129.5794  155.2652 C.3     1  UNL1        0.1070
     35 C         144.1250  128.5963  156.1171 C.3     1  UNL1        0.0936
     36 N         143.7085  128.3686  157.5400 N.3     1  UNL1       -0.2712
     37 C         142.4577  127.6750  157.9924 C.3     1  UNL1        0.0722
     38 C         142.4459  127.6723  159.4924 C.3     1  UNL1        0.0188
     39 C         143.6893  128.3642  159.9670 C.3     1  UNL1        0.0188
     40 C         144.4696  128.7945  158.7604 C.3     1  UNL1        0.0722
     41 C         138.9811  136.9628  155.4111 C.3     1  UNL1        0.2525
     42 O         140.3251  136.6735  154.8112 O.3     1  UNL1       -0.4717
@<TRIPOS>BOND
     1    41    42    1
     2    42    24    1
     3    24    25   ar
     4    25    26   ar
     5    26    30    1
     6    30    31    2
     7    30    32   am
     8    32    34    1
     9    34    35    1
    10    35    36    1
    11    36    37    1
    12    37    38    1
    13    38    39    1
    14    39    40    1
    15    26    27   ar
    16    27    28   ar
    17    28    29   ar
    18    29    23    1
    19    23     1    1
    20     1     2    1
    21     2     3    1
    22     3     4    1
    23     4     7    1
    24     7     8   am
    25     8     9    2
    26     8    11    1
    27    11    12   ar
    28    12    13   ar
    29    13    14    2
    30    13    15   ar
    31    15    16   ar
    32    16    17   ar
    33    17    18   ar
    34    18    19    1
    35    18    20   ar
    36    20    21   ar
    37    21    22   ar
    38     4     5    1
    39     5     6    1
    40    29    24   ar
    41     6     1    1
    42    40    36    1
    43    22    11   ar
    44    21    15   ar
    45    32    33    1
    46     7    10    1
@<TRIPOS>MOLECULE
*****
 42 46 0 0 0
SMALL
GASTEIGER

@<TRIPOS>ATOM
      1 N         142.6187  139.7326  158.6525 N.3     1  UNL1       -0.2688
      2 C         143.3861  139.0611  159.7526 C.3     1  UNL1        0.0741
      3 C         143.0072  139.2984  161.1844 C.3     1  UNL1        0.0369
      4 C         141.8608  140.2071  161.5162 C.3     1  UNL1        0.0747
      5 C         141.0934  140.8786  160.4161 C.3     1  UNL1        0.0369
      6 C         141.4723  140.6414  158.9843 C.3     1  UNL1        0.0741
      7 N         141.4819  140.4444  162.9480 N.am    1  UNL1       -0.2999
      8 C         140.6081  139.4588  163.6657 C.2     1  UNL1        0.2806
      9 O         140.1132  138.2361  162.9517 O.2     1  UNL1       -0.2668
     10 H         141.8068  141.2469  163.4166 H       1  UNL1        0.1498
     11 C         140.2292  139.6961  165.0976 C.ar    1  UNL1        0.2014
     12 C         139.0973  138.9267  165.7113 C.ar    1  UNL1        0.0843
     13 C         138.7184  139.1639  167.1431 C.ar    1  UNL1        0.2018
     14 O         137.5864  138.3944  167.7568 O.2     1  UNL1       -0.2864
     15 C         139.4714  140.1707  167.9613 C.ar    1  UNL1        0.0737
     16 C         139.0925  140.4079  169.3931 C.ar    1  UNL1        0.0085
     17 C         139.8455  141.4147  170.2112 C.ar    1  UNL1        0.0299
     18 C         140.9775  142.1842  169.5976 C.ar    1  UNL1        0.1432
     19 F         141.7305  143.1909  170.4158 F       1  UNL1       -0.2041
     20 C         141.3564  141.9469  168.1658 C.ar    1  UNL1        0.0672
     21 C         140.6033  140.9402  167.3476 C.ar    1  UNL1        0.1508
     22 O         140.9822  140.7029  165.9158 O.2     1  UNL1       -0.4486
     23 C         142.9976  139.4954  157.2207 C.3     1  UNL1        0.1022
     24 C         143.7276  137.4533  155.7900 C.ar    1  UNL1        0.1361
     25 C         143.4033  136.1431  155.1355 C.ar    1  UNL1        0.0411
     26 C         142.0246  135.5650  155.2573 C.ar    1  UNL1        0.0563
     27 C         140.9702  136.2969  156.0335 C.ar    1  UNL1        0.0044
     28 C         141.2946  137.6071  156.6880 C.ar    1  UNL1        0.0002
     29 C         142.6733  138.1852  156.5662 C.ar    1  UNL1        0.0279
     30 C         141.7002  134.2548  154.6028 C.2     1  UNL1        0.2460
     31 O         141.9419  134.0701  153.1340 O.2     1  UNL1       -0.2701
     32 N         141.1342  133.1295  155.4171 N.am    1  UNL1       -0.2994
     33 H         140.9756  133.2507  156.3811 H       1  UNL1        0.1498
     34 C         140.8099  131.8193  154.7626 C.3     1  UNL1        0.1070
     35 C         141.7294  130.6468  154.9352 C.3     1  UNL1        0.0936
     36 N         142.9678  130.7815  155.7708 N.3     1  UNL1       -0.2712
     37 C         144.2660  131.3911  155.3312 C.3     1  UNL1        0.0722
     38 C         145.2260  131.3166  156.4814 C.3     1  UNL1        0.0188
     39 C         144.5212  130.6610  157.6318 C.3     1  UNL1        0.0188
     40 C         143.1255  130.3303  157.1926 C.3     1  UNL1        0.0722
     41 C         145.3720  139.1383  154.6914 C.3     1  UNL1        0.2525
     42 O         145.1064  138.0315  155.6683 O.3     1  UNL1       -0.4717
@<TRIPOS>BOND
     1    41    42    1
     2    42    24    1
     3    24    25   ar
     4    25    26   ar
     5    26    30    1
     6    30    31    2
     7    30    32   am
     8    32    34    1
     9    34    35    1
    10    35    36    1
    11    36    37    1
    12    37    38    1
    13    38    39    1
    14    39    40    1
    15    26    27   ar
    16    27    28   ar
    17    28    29   ar
    18    29    23    1
    19    23     1    1
    20     1     2    1
    21     2     3    1
    22     3     4    1
    23     4     7    1
    24     7     8   am
    25     8     9    2
    26     8    11    1
    27    11    12   ar
    28    12    13   ar
    29    13    14    2
    30    13    15   ar
    31    15    16   ar
    32    16    17   ar
    33    17    18   ar
    34    18    19    1
    35    18    20   ar
    36    20    21   ar
    37    21    22   ar
    38     4     5    1
    39     5     6    1
    40    29    24   ar
    41     6     1    1
    42    40    36    1
    43    22    11   ar
    44    21    15   ar
    45    32    33    1
    46     7    10    1
@<TRIPOS>MOLECULE
*****
 42 46 0 0 0
SMALL
GASTEIGER

@<TRIPOS>ATOM
      1 N         142.2313  137.9644  159.0119 N.3     1  UNL1       -0.2688
      2 C         143.2490  137.7639  160.0955 C.3     1  UNL1        0.0741
      3 C         142.8725  137.9919  161.5295 C.3     1  UNL1        0.0369
      4 C         141.4784  138.4204  161.8799 C.3     1  UNL1        0.0747
      5 C         140.4607  138.6209  160.7964 C.3     1  UNL1        0.0369
      6 C         140.8371  138.3929  159.3624 C.3     1  UNL1        0.0741
      7 N         141.1020  138.6483  163.3139 N.am    1  UNL1       -0.2999
      8 C         141.0931  140.0394  163.8750 C.2     1  UNL1        0.2806
      9 O         141.4606  141.2025  163.0021 O.2     1  UNL1       -0.2668
     10 H         140.8608  137.8849  163.8868 H       1  UNL1        0.1498
     11 C         140.7167  140.2673  165.3090 C.ar    1  UNL1        0.2014
     12 C         139.5792  139.5012  165.9167 C.ar    1  UNL1        0.0843
     13 C         139.2028  139.7291  167.3507 C.ar    1  UNL1        0.2018
     14 O         138.0654  138.9630  167.9583 O.2     1  UNL1       -0.2864
     15 C         139.9638  140.7231  168.1770 C.ar    1  UNL1        0.0737
     16 C         139.5874  140.9510  169.6110 C.ar    1  UNL1        0.0085
     17 C         140.3484  141.9450  170.4373 C.ar    1  UNL1        0.0299
     18 C         141.4858  142.7111  169.8296 C.ar    1  UNL1        0.1432
     19 F         142.2469  143.7051  170.6560 F       1  UNL1       -0.2041
     20 C         141.8623  142.4832  168.3957 C.ar    1  UNL1        0.0672
     21 C         141.1013  141.4892  167.5694 C.ar    1  UNL1        0.1508
     22 O         141.4777  141.2613  166.1353 O.2     1  UNL1       -0.4486
     23 C         142.6077  137.7365  157.5780 C.3     1  UNL1        0.1022
     24 C         141.3584  136.1766  155.9178 C.ar    1  UNL1        0.1361
     25 C         141.1690  134.8236  155.2987 C.ar    1  UNL1        0.0411
     26 C         142.0396  133.6773  155.7205 C.ar    1  UNL1        0.0563
     27 C         143.0995  133.8840  156.7615 C.ar    1  UNL1        0.0044
     28 C         143.2889  135.2371  157.3807 C.ar    1  UNL1        0.0002
     29 C         142.4183  136.3834  156.9588 C.ar    1  UNL1        0.0279
     30 C         141.8502  132.3242  155.1014 C.2     1  UNL1        0.2460
     31 O         140.8601  132.1400  153.9898 O.2     1  UNL1       -0.2701
     32 N         142.6510  131.1553  155.5938 N.am    1  UNL1       -0.2994
     33 H         143.3008  131.2762  156.3234 H       1  UNL1        0.1498
     34 C         142.4616  129.8023  154.9747 C.3     1  UNL1        0.1070
     35 C         142.3582  128.5862  155.8468 C.3     1  UNL1        0.0936
     36 N         141.0350  127.9032  156.0275 N.3     1  UNL1       -0.2712
     37 C         139.7555  128.2617  155.3315 C.3     1  UNL1        0.0722
     38 C         138.6887  127.3217  155.8097 C.3     1  UNL1        0.0188
     39 C         139.3090  126.3824  156.8011 C.3     1  UNL1        0.0188
     40 C         140.7590  126.7417  156.9357 C.3     1  UNL1        0.0722
     41 C         139.0841  137.0678  155.0326 C.3     1  UNL1        0.2525
     42 O         140.4877  137.3230  155.4959 O.3     1  UNL1       -0.4717
@<TRIPOS>BOND
     1    41    42    1
     2    42    24    1
     3    24    25   ar
     4    25    26   ar
     5    26    30    1
     6    30    31    2
     7    30    32   am
     8    32    34    1
     9    34    35    1
    10    35    36    1
    11    36    37    1
    12    37    38    1
    13    38    39    1
    14    39    40    1
    15    26    27   ar
    16    27    28   ar
    17    28    29   ar
    18    29    23    1
    19    23     1    1
    20     1     2    1
    21     2     3    1
    22     3     4    1
    23     4     7    1
    24     7     8   am
    25     8     9    2
    26     8    11    1
    27    11    12   ar
    28    12    13   ar
    29    13    14    2
    30    13    15   ar
    31    15    16   ar
    32    16    17   ar
    33    17    18   ar
    34    18    19    1
    35    18    20   ar
    36    20    21   ar
    37    21    22   ar
    38     4     5    1
    39     5     6    1
    40    29    24   ar
    41     6     1    1
    42    40    36    1
    43    22    11   ar
    44    21    15   ar
    45    32    33    1
    46     7    10    1
@<TRIPOS>MOLECULE
*****
 42 46 0 0 0
SMALL
GASTEIGER

@<TRIPOS>ATOM
      1 N         142.8148  142.2899  158.9131 N.3     1  UNL1       -0.2688
      2 C         144.0069  141.8865  158.0969 C.3     1  UNL1        0.0741
      3 C         143.9638  140.6320  157.2756 C.3     1  UNL1        0.0369
      4 C         142.7286  139.7810  157.2704 C.3     1  UNL1        0.0747
      5 C         141.5365  140.1844  158.0866 C.3     1  UNL1        0.0369
      6 C         141.5795  141.4388  158.9079 C.3     1  UNL1        0.0741
      7 N         142.6855  138.5266  156.4491 N.am    1  UNL1       -0.2999
      8 C         142.8629  137.1914  157.1093 C.2     1  UNL1        0.2806
      9 O         143.0833  137.1106  158.5907 O.2     1  UNL1       -0.2668
     10 H         142.5408  138.5796  155.4767 H       1  UNL1        0.1498
     11 C         142.8198  135.9370  156.2879 C.ar    1  UNL1        0.2014
     12 C         141.9131  135.8518  155.0960 C.ar    1  UNL1        0.0843
     13 C         141.8700  134.5975  154.2746 C.ar    1  UNL1        0.2018
     14 O         140.9633  134.5122  153.0827 O.2     1  UNL1       -0.2864
     15 C         142.7336  133.4282  154.6451 C.ar    1  UNL1        0.0737
     16 C         142.6904  132.1739  153.8237 C.ar    1  UNL1        0.0085
     17 C         143.5540  131.0048  154.1942 C.ar    1  UNL1        0.0299
     18 C         144.4607  131.0900  155.3862 C.ar    1  UNL1        0.1432
     19 F         145.3243  129.9207  155.7567 F       1  UNL1       -0.2041
     20 C         144.5038  132.3443  156.2075 C.ar    1  UNL1        0.0672
     21 C         143.6403  133.5134  155.8370 C.ar    1  UNL1        0.1508
     22 O         143.6833  134.7679  156.6584 O.2     1  UNL1       -0.4486
     23 C         142.8579  143.5443  159.7344 C.3     1  UNL1        0.1022
     24 C         142.2852  144.2110  162.1793 C.ar    1  UNL1        0.1361
     25 C         142.5773  144.1357  163.6486 C.ar    1  UNL1        0.0411
     26 C         143.7341  143.3185  164.1425 C.ar    1  UNL1        0.0563
     27 C         144.5988  142.5766  163.1670 C.ar    1  UNL1        0.0044
     28 C         144.3067  142.6518  161.6976 C.ar    1  UNL1        0.0002
     29 C         143.1499  143.4690  161.2037 C.ar    1  UNL1        0.0279
     30 C         144.0261  143.2433  165.6118 C.2     1  UNL1        0.2460
     31 O         145.1829  144.0058  166.1866 O.2     1  UNL1       -0.2701
     32 N         143.1614  142.4055  166.5065 N.am    1  UNL1       -0.2994
     33 H         142.4021  141.9051  166.1292 H       1  UNL1        0.1498
     34 C         143.4535  142.3303  167.9758 C.3     1  UNL1        0.1070
     35 C         142.9349  141.1790  168.7856 C.3     1  UNL1        0.0936
     36 N         141.5307  141.2050  169.3126 N.3     1  UNL1       -0.2712
     37 C         140.8295  142.3963  169.8951 C.3     1  UNL1        0.0722
     38 C         139.4467  141.9717  170.2921 C.3     1  UNL1        0.0188
     39 C         139.2933  140.5182  169.9550 C.3     1  UNL1        0.0188
     40 C         140.5813  140.0443  169.3497 C.3     1  UNL1        0.0722
     41 C         139.7362  144.4735  161.7505 C.3     1  UNL1        0.2525
     42 O         141.1283  145.0282  161.6854 O.3     1  UNL1       -0.4717
@<TRIPOS>BOND
     1    41    42    1
     2    42    24    1
     3    24    25   ar
     4    25    26   ar
     5    26    30    1
     6    30    31    2
     7    30    32   am
     8    32    34    1
     9    34    35    1
    10    35    36    1
    11    36    37    1
    12    37    38    1
    13    38    39    1
    14    39    40    1
    15    26    27   ar
    16    27    28   ar
    17    28    29   ar
    18    29    23    1
    19    23     1    1
    20     1     2    1
    21     2     3    1
    22     3     4    1
    23     4     7    1
    24     7     8   am
    25     8     9    2
    26     8    11    1
    27    11    12   ar
    28    12    13   ar
    29    13    14    2
    30    13    15   ar
    31    15    16   ar
    32    16    17   ar
    33    17    18   ar
    34    18    19    1
    35    18    20   ar
    36    20    21   ar
    37    21    22   ar
    38     4     5    1
    39     5     6    1
    40    29    24   ar
    41     6     1    1
    42    40    36    1
    43    22    11   ar
    44    21    15   ar
    45    32    33    1
    46     7    10    1
@<TRIPOS>MOLECULE
*****
 42 46 0 0 0
SMALL
GASTEIGER

@<TRIPOS>ATOM
      1 N         141.9053  139.6468  157.7920 N.3     1  UNL1       -0.2688
      2 C         140.6567  139.5168  158.6131 C.3     1  UNL1        0.0741
      3 C         140.6924  139.8100  160.0838 C.3     1  UNL1        0.0369
      4 C         141.9765  140.2331  160.7333 C.3     1  UNL1        0.0747
      5 C         143.2250  140.3631  159.9122 C.3     1  UNL1        0.0369
      6 C         143.1895  140.0700  158.4416 C.3     1  UNL1        0.0741
      7 N         142.0121  140.5263  162.2039 N.am    1  UNL1       -0.2999
      8 C         142.0716  139.3994  163.1921 C.2     1  UNL1        0.2806
      9 O         142.0956  137.9793  162.7097 O.2     1  UNL1       -0.2668
     10 H         141.9963  141.4583  162.5206 H       1  UNL1        0.1498
     11 C         142.1072  139.6926  164.6628 C.ar    1  UNL1        0.2014
     12 C         142.8376  138.7708  165.5938 C.ar    1  UNL1        0.0843
     13 C         142.8732  139.0640  167.0644 C.ar    1  UNL1        0.2018
     14 O         143.6036  138.1422  167.9955 O.2     1  UNL1       -0.2864
     15 C         142.1784  140.2790  167.6041 C.ar    1  UNL1        0.0737
     16 C         142.2140  140.5721  169.0747 C.ar    1  UNL1        0.0085
     17 C         141.5192  141.7870  169.6142 C.ar    1  UNL1        0.0299
     18 C         140.7888  142.7088  168.6832 C.ar    1  UNL1        0.1432
     19 F         140.0940  143.9238  169.2228 F       1  UNL1       -0.2041
     20 C         140.7532  142.4157  167.2126 C.ar    1  UNL1        0.0672
     21 C         141.4480  141.2007  166.6730 C.ar    1  UNL1        0.1508
     22 O         141.4124  140.9075  165.2023 O.2     1  UNL1       -0.4486
     23 C         141.8697  139.3536  156.3214 C.3     1  UNL1        0.1022
     24 C         143.0759  137.1539  155.6459 C.ar    1  UNL1        0.1361
     25 C         143.0158  135.7343  155.1654 C.ar    1  UNL1        0.0411
     26 C         141.6894  135.0946  154.8798 C.ar    1  UNL1        0.0563
     27 C         140.4232  135.8747  155.0747 C.ar    1  UNL1        0.0044
     28 C         140.4832  137.2943  155.5552 C.ar    1  UNL1        0.0002
     29 C         141.8096  137.9340  155.8408 C.ar    1  UNL1        0.0279
     30 C         141.6294  133.6749  154.3992 C.2     1  UNL1        0.2460
     31 O         142.1548  133.3204  153.0398 O.2     1  UNL1       -0.2701
     32 N         141.0438  132.6098  155.2781 N.am    1  UNL1       -0.2994
     33 H         140.6989  132.8425  156.1704 H       1  UNL1        0.1498
     34 C         140.9837  131.1901  154.7976 C.3     1  UNL1        0.1070
     35 C         142.0618  130.2213  155.1839 C.3     1  UNL1        0.0936
     36 N         143.2145  130.6792  156.0275 N.3     1  UNL1       -0.2712
     37 C         144.2557  131.6825  155.6280 C.3     1  UNL1        0.0722
     38 C         145.2131  131.8375  156.7723 C.3     1  UNL1        0.0188
     39 C         144.7637  130.9301  157.8789 C.3     1  UNL1        0.0188
     40 C         143.5285  130.2143  157.4186 C.3     1  UNL1        0.0722
     41 C         145.0413  138.6844  154.9078 C.3     1  UNL1        0.2525
     42 O         144.4023  137.7936  155.9315 O.3     1  UNL1       -0.4717
@<TRIPOS>BOND
     1    41    42    1
     2    42    24    1
     3    24    25   ar
     4    25    26   ar
     5    26    30    1
     6    30    31    2
     7    30    32   am
     8    32    34    1
     9    34    35    1
    10    35    36    1
    11    36    37    1
    12    37    38    1
    13    38    39    1
    14    39    40    1
    15    26    27   ar
    16    27    28   ar
    17    28    29   ar
    18    29    23    1
    19    23     1    1
    20     1     2    1
    21     2     3    1
    22     3     4    1
    23     4     7    1
    24     7     8   am
    25     8     9    2
    26     8    11    1
    27    11    12   ar
    28    12    13   ar
    29    13    14    2
    30    13    15   ar
    31    15    16   ar
    32    16    17   ar
    33    17    18   ar
    34    18    19    1
    35    18    20   ar
    36    20    21   ar
    37    21    22   ar
    38     4     5    1
    39     5     6    1
    40    29    24   ar
    41     6     1    1
    42    40    36    1
    43    22    11   ar
    44    21    15   ar
    45    32    33    1
    46     7    10    1
@<TRIPOS>MOLECULE
*****
 42 46 0 0 0
SMALL
GASTEIGER

@<TRIPOS>ATOM
      1 N         140.6904  141.1493  162.5736 N.3     1  UNL1       -0.2688
      2 C         141.1770  141.7149  161.2724 C.3     1  UNL1        0.0741
      3 C         141.1368  140.8773  160.0286 C.3     1  UNL1        0.0369
      4 C         140.6099  139.4740  160.0862 C.3     1  UNL1        0.0747
      5 C         140.1233  138.9084  161.3875 C.3     1  UNL1        0.0369
      6 C         140.1636  139.7460  162.6312 C.3     1  UNL1        0.0741
      7 N         140.5697  138.6364  158.8426 N.am    1  UNL1       -0.2999
      8 C         141.8350  138.0457  158.2949 C.2     1  UNL1        0.2806
      9 O         143.1406  138.2925  158.9909 O.2     1  UNL1       -0.2668
     10 H         139.7128  138.4744  158.3857 H       1  UNL1        0.1498
     11 C         141.7947  137.2081  157.0512 C.ar    1  UNL1        0.2014
     12 C         141.2036  137.7656  155.7903 C.ar    1  UNL1        0.0843
     13 C         141.1633  136.9280  154.5466 C.ar    1  UNL1        0.2018
     14 O         140.5722  137.4856  153.2857 O.2     1  UNL1       -0.2864
     15 C         141.7141  135.5329  154.5637 C.ar    1  UNL1        0.0737
     16 C         141.6738  134.6953  153.3200 C.ar    1  UNL1        0.0085
     17 C         142.2245  133.3002  153.3372 C.ar    1  UNL1        0.0299
     18 C         142.8156  132.7427  154.5981 C.ar    1  UNL1        0.1432
     19 F         143.3663  131.3475  154.6152 F       1  UNL1       -0.2041
     20 C         142.8559  133.5802  155.8418 C.ar    1  UNL1        0.0672
     21 C         142.3051  134.9753  155.8246 C.ar    1  UNL1        0.1508
     22 O         142.3454  135.8130  157.0683 O.2     1  UNL1       -0.4486
     23 C         140.7307  141.9869  163.8173 C.3     1  UNL1        0.1022
     24 C         142.3792  140.8911  165.5000 C.ar    1  UNL1        0.1361
     25 C         142.6420  140.2478  166.8293 C.ar    1  UNL1        0.0411
     26 C         141.5190  140.0571  167.8053 C.ar    1  UNL1        0.0563
     27 C         140.1333  140.5096  167.4519 C.ar    1  UNL1        0.0044
     28 C         139.8705  141.1529  166.1226 C.ar    1  UNL1        0.0002
     29 C         140.9934  141.3436  165.1466 C.ar    1  UNL1        0.0279
     30 C         141.7818  139.4138  169.1346 C.2     1  UNL1        0.2460
     31 O         140.7399  139.4665  170.2124 O.2     1  UNL1       -0.2701
     32 N         143.0865  138.7177  169.3862 N.am    1  UNL1       -0.2994
     33 H         143.7703  138.6831  168.6788 H       1  UNL1        0.1498
     34 C         143.3492  138.0744  170.7155 C.3     1  UNL1        0.1070
     35 C         143.7265  136.6243  170.7855 C.3     1  UNL1        0.0936
     36 N         144.8096  136.1754  171.7211 N.3     1  UNL1       -0.2712
     37 C         145.7689  137.0674  172.4520 C.3     1  UNL1        0.0722
     38 C         146.6758  136.1989  173.2727 C.3     1  UNL1        0.0188
     39 C         146.2769  134.7703  173.0491 C.3     1  UNL1        0.0188
     40 C         145.1236  134.7558  172.0901 C.3     1  UNL1        0.0722
     41 C         144.0188  139.9138  163.7375 C.3     1  UNL1        0.2525
     42 O         143.5022  141.0819  164.5240 O.3     1  UNL1       -0.4717
@<TRIPOS>BOND
     1    41    42    1
     2    42    24    1
     3    24    25   ar
     4    25    26   ar
     5    26    30    1
     6    30    31    2
     7    30    32   am
     8    32    34    1
     9    34    35    1
    10    35    36    1
    11    36    37    1
    12    37    38    1
    13    38    39    1
    14    39    40    1
    15    26    27   ar
    16    27    28   ar
    17    28    29   ar
    18    29    23    1
    19    23     1    1
    20     1     2    1
    21     2     3    1
    22     3     4    1
    23     4     7    1
    24     7     8   am
    25     8     9    2
    26     8    11    1
    27    11    12   ar
    28    12    13   ar
    29    13    14    2
    30    13    15   ar
    31    15    16   ar
    32    16    17   ar
    33    17    18   ar
    34    18    19    1
    35    18    20   ar
    36    20    21   ar
    37    21    22   ar
    38     4     5    1
    39     5     6    1
    40    29    24   ar
    41     6     1    1
    42    40    36    1
    43    22    11   ar
    44    21    15   ar
    45    32    33    1
    46     7    10    1
@<TRIPOS>MOLECULE
*****
 42 46 0 0 0
SMALL
GASTEIGER

@<TRIPOS>ATOM
      1 N         139.8040  142.5480  160.7997 N.3     1  UNL1       -0.2688
      2 C         139.7524  141.6570  159.5942 C.3     1  UNL1        0.0741
      3 C         140.7535  141.8298  158.4905 C.3     1  UNL1        0.0369
      4 C         141.8060  142.8936  158.5924 C.3     1  UNL1        0.0747
      5 C         141.8575  143.7847  159.7979 C.3     1  UNL1        0.0369
      6 C         140.8566  143.6119  160.9016 C.3     1  UNL1        0.0741
      7 N         142.8070  143.0664  157.4887 N.am    1  UNL1       -0.2999
      8 C         144.0266  142.1945  157.4390 C.2     1  UNL1        0.2806
      9 O         144.2451  141.1498  158.4929 O.2     1  UNL1       -0.2668
     10 H         142.6635  143.7520  156.7969 H       1  UNL1        0.1498
     11 C         145.0276  142.3673  156.3352 C.ar    1  UNL1        0.2014
     12 C         144.5957  142.9260  155.0118 C.ar    1  UNL1        0.0843
     13 C         145.5967  143.0989  153.9081 C.ar    1  UNL1        0.2018
     14 O         145.1648  143.6576  152.5847 O.2     1  UNL1       -0.2864
     15 C         147.0295  142.7129  154.1277 C.ar    1  UNL1        0.0737
     16 C         148.0304  142.8858  153.0240 C.ar    1  UNL1        0.0085
     17 C         149.4631  142.4999  153.2437 C.ar    1  UNL1        0.0299
     18 C         149.8950  141.9411  154.5671 C.ar    1  UNL1        0.1432
     19 F         151.3278  141.5552  154.7867 F       1  UNL1       -0.2041
     20 C         148.8940  141.7683  155.6708 C.ar    1  UNL1        0.0672
     21 C         147.4613  142.1542  155.4511 C.ar    1  UNL1        0.1508
     22 O         146.4603  141.9814  156.5549 O.2     1  UNL1       -0.4486
     23 C         138.8030  142.3753  161.9034 C.3     1  UNL1        0.1022
     24 C         139.4601  140.3190  163.3491 C.ar    1  UNL1        0.1361
     25 C         139.8872  139.7393  164.6649 C.ar    1  UNL1        0.0411
     26 C         140.0841  140.6361  165.8511 C.ar    1  UNL1        0.0563
     27 C         139.8540  142.1126  165.7213 C.ar    1  UNL1        0.0044
     28 C         139.4270  142.6923  164.4054 C.ar    1  UNL1        0.0002
     29 C         139.2300  141.7955  163.2193 C.ar    1  UNL1        0.0279
     30 C         140.5112  140.0563  167.1669 C.2     1  UNL1        0.2460
     31 O         139.4822  139.5390  168.1279 O.2     1  UNL1       -0.2701
     32 N         141.9672  139.9940  167.5219 N.am    1  UNL1       -0.2994
     33 H         142.6426  140.3336  166.8912 H       1  UNL1        0.1498
     34 C         142.3942  139.4143  168.8378 C.3     1  UNL1        0.1070
     35 C         142.4691  140.2892  170.0539 C.3     1  UNL1        0.0936
     36 N         141.6153  141.5190  170.1467 N.3     1  UNL1       -0.2712
     37 C         140.2689  141.6102  170.8017 C.3     1  UNL1        0.0722
     38 C         139.7795  143.0212  170.6606 C.3     1  UNL1        0.0188
     39 C         140.8234  143.8019  169.9185 C.3     1  UNL1        0.0188
     40 C         141.9580  142.8735  169.6009 C.3     1  UNL1        0.0722
     41 C         138.2553  138.3127  162.2206 C.3     1  UNL1        0.2525
     42 O         139.2632  139.4221  162.1629 O.3     1  UNL1       -0.4717
@<TRIPOS>BOND
     1    41    42    1
     2    42    24    1
     3    24    25   ar
     4    25    26   ar
     5    26    30    1
     6    30    31    2
     7    30    32   am
     8    32    34    1
     9    34    35    1
    10    35    36    1
    11    36    37    1
    12    37    38    1
    13    38    39    1
    14    39    40    1
    15    26    27   ar
    16    27    28   ar
    17    28    29   ar
    18    29    23    1
    19    23     1    1
    20     1     2    1
    21     2     3    1
    22     3     4    1
    23     4     7    1
    24     7     8   am
    25     8     9    2
    26     8    11    1
    27    11    12   ar
    28    12    13   ar
    29    13    14    2
    30    13    15   ar
    31    15    16   ar
    32    16    17   ar
    33    17    18   ar
    34    18    19    1
    35    18    20   ar
    36    20    21   ar
    37    21    22   ar
    38     4     5    1
    39     5     6    1
    40    29    24   ar
    41     6     1    1
    42    40    36    1
    43    22    11   ar
    44    21    15   ar
    45    32    33    1
    46     7    10    1
@<TRIPOS>MOLECULE
*****
 42 46 0 0 0
SMALL
GASTEIGER

@<TRIPOS>ATOM
      1 N         139.3910  140.3410  157.7150 N.3     1  UNL1       -0.2688
      2 C         139.3735  139.0218  158.4287 C.3     1  UNL1        0.0741
      3 C         139.5622  138.9711  159.9159 C.3     1  UNL1        0.0369
      4 C         139.7684  140.2396  160.6894 C.3     1  UNL1        0.0747
      5 C         139.7860  141.5588  159.9757 C.3     1  UNL1        0.0369
      6 C         139.5973  141.6095  158.4886 C.3     1  UNL1        0.0741
      7 N         139.9571  140.1889  162.1766 N.am    1  UNL1       -0.2999
      8 C         138.7989  140.4636  163.0894 C.2     1  UNL1        0.2806
      9 O         137.4521  140.7891  162.5150 O.2     1  UNL1       -0.2668
     10 H         140.8411  139.9752  162.5536 H       1  UNL1        0.1498
     11 C         138.9877  140.4129  164.5767 C.ar    1  UNL1        0.2014
     12 C         138.2636  139.3811  165.3898 C.ar    1  UNL1        0.0843
     13 C         138.4523  139.3303  166.8770 C.ar    1  UNL1        0.2018
     14 O         137.7283  138.2985  167.6901 O.2     1  UNL1       -0.2864
     15 C         139.3652  140.3113  167.5511 C.ar    1  UNL1        0.0737
     16 C         139.5539  140.2606  169.0383 C.ar    1  UNL1        0.0085
     17 C         140.4667  141.2416  169.7124 C.ar    1  UNL1        0.0299
     18 C         141.1907  142.2734  168.8992 C.ar    1  UNL1        0.1432
     19 F         142.1035  143.2544  169.5734 F       1  UNL1       -0.2041
     20 C         141.0020  142.3241  167.4121 C.ar    1  UNL1        0.0672
     21 C         140.0892  141.3431  166.7380 C.ar    1  UNL1        0.1508
     22 O         139.9005  141.3939  165.2507 O.2     1  UNL1       -0.4486
     23 C         139.2023  140.3917  156.2278 C.3     1  UNL1        0.1022
     24 C         137.0295  139.5381  155.0875 C.ar    1  UNL1        0.1361
     25 C         135.6710  139.8102  154.5127 C.ar    1  UNL1        0.0411
     26 C         135.1268  141.2079  154.5033 C.ar    1  UNL1        0.0563
     27 C         135.9410  142.3336  155.0688 C.ar    1  UNL1        0.0044
     28 C         137.2996  142.0615  155.6436 C.ar    1  UNL1        0.0002
     29 C         137.8438  140.6638  155.6530 C.ar    1  UNL1        0.0279
     30 C         133.7682  141.4800  153.9285 C.2     1  UNL1        0.2460
     31 O         133.6210  141.7989  152.4703 O.2     1  UNL1       -0.2701
     32 N         132.5569  141.4331  154.8120 N.am    1  UNL1       -0.2994
     33 H         132.6536  141.2238  155.7691 H       1  UNL1        0.1498
     34 C         131.1984  141.7052  154.2372 C.3     1  UNL1        0.1070
     35 C         129.9826  141.6163  155.1113 C.3     1  UNL1        0.0936
     36 N         129.8061  140.4467  156.0338 N.3     1  UNL1       -0.2712
     37 C         130.8426  139.8964  156.9682 C.3     1  UNL1        0.0722
     38 C         130.2391  138.7317  157.6957 C.3     1  UNL1        0.0188
     39 C         128.8297  138.5621  157.2110 C.3     1  UNL1        0.0188
     40 C         128.5621  139.6221  156.1839 C.3     1  UNL1        0.0722
     41 C         138.3245  137.6198  153.9072 C.3     1  UNL1        0.2525
     42 O         137.5737  138.1403  155.0969 O.3     1  UNL1       -0.4717
@<TRIPOS>BOND
     1    41    42    1
     2    42    24    1
     3    24    25   ar
     4    25    26   ar
     5    26    30    1
     6    30    31    2
     7    30    32   am
     8    32    34    1
     9    34    35    1
    10    35    36    1
    11    36    37    1
    12    37    38    1
    13    38    39    1
    14    39    40    1
    15    26    27   ar
    16    27    28   ar
    17    28    29   ar
    18    29    23    1
    19    23     1    1
    20     1     2    1
    21     2     3    1
    22     3     4    1
    23     4     7    1
    24     7     8   am
    25     8     9    2
    26     8    11    1
    27    11    12   ar
    28    12    13   ar
    29    13    14    2
    30    13    15   ar
    31    15    16   ar
    32    16    17   ar
    33    17    18   ar
    34    18    19    1
    35    18    20   ar
    36    20    21   ar
    37    21    22   ar
    38     4     5    1
    39     5     6    1
    40    29    24   ar
    41     6     1    1
    42    40    36    1
    43    22    11   ar
    44    21    15   ar
    45    32    33    1
    46     7    10    1
