@<TRIPOS>MOLECULE
*****
 40 46 0 0 0
SMALL
GASTEIGER

@<TRIPOS>ATOM
      1 C         140.8731  141.2565  159.8832 C.3     1  UNL1        0.1707
      2 N         141.1779  140.1772  158.8871 N.3     1  UNL1       -0.2797
      3 C         142.4682  139.4175  158.9758 C.3     1  UNL1        0.1167
      4 C         143.4537  139.7370  160.0606 C.3     1  UNL1        0.0511
      5 C         143.1489  140.8162  161.0567 C.2     1  UNL1       -0.0037
      6 C         141.8586  141.5760  160.9680 C.2     1  UNL1        0.0800
      7 N         141.8336  142.5788  162.0832 N.2     1  UNL1       -0.2519
      8 C         143.1085  142.4388  162.8611 C.2     1  UNL1        0.0627
      9 C         143.6341  143.1626  164.0652 C.3     1  UNL1        0.0717
     10 C         144.9727  142.7969  164.6348 C.2     1  UNL1       -0.0198
     11 C         145.7856  141.7076  164.0004 C.2     1  UNL1       -0.0042
     12 C         145.2599  140.9838  162.7964 C.2     1  UNL1        0.0006
     13 C         143.9213  141.3495  162.2267 C.2     1  UNL1        0.0111
     14 H         141.1554  140.6127  157.9650 H       1  UNL1        0.1246
     15 C         140.1373  142.3577  160.5876 C.ar    1  UNL1        0.2493
     16 N         139.1032  142.1819  161.6597 N.ar    1  UNL1       -0.1285
     17 N         138.6333  143.5436  162.0781 N.ar    1  UNL1       -0.1809
     18 C         137.6009  143.8365  163.1261 C.3     1  UNL1        0.1605
     19 C         139.3770  144.5609  161.2646 C.ar    1  UNL1        0.4389
     20 O         139.2190  146.0497  161.3562 O.2     1  UNL1       -0.2210
     21 O         140.3066  143.8279  160.3433 O.2     1  UNL1       -0.3896
     22 C         137.2287  142.8747  156.4218 C.3     1  UNL1        0.1537
     23 N         137.9569  142.0632  157.4520 N.ar    1  UNL1       -0.2476
     24 C         139.2823  142.4032  158.0668 C.ar    1  UNL1        0.0945
     25 C         139.6321  141.3194  159.0430 C.ar    1  UNL1        0.0439
     26 C         138.5229  140.3096  159.0316 C.ar    1  UNL1        0.1194
     27 N         137.4876  140.7693  158.0483 N.ar    1  UNL1       -0.1679
     28 C         142.7731  138.3381  157.9797 C.ar    1  UNL1        0.1319
     29 N         142.3886  136.8932  158.1000 N.ar    1  UNL1       -0.2282
     30 C         142.8938  136.1763  156.8831 C.ar    1  UNL1        0.1171
     31 C         143.5905  137.1781  156.0107 C.ar    1  UNL1        0.0942
     32 N         143.5158  138.5142  156.6885 N.ar    1  UNL1       -0.3385
     33 H         143.8889  139.3585  156.3460 H       1  UNL1        0.1672
     34 C         142.7309  134.7142  156.5900 C.ar    1  UNL1        0.1006
     35 C         141.7570  134.2633  155.5421 C.ar    1  UNL1        0.0230
     36 C         141.5941  132.8013  155.2490 C.ar    1  UNL1        0.0328
     37 C         142.4051  131.7902  156.0039 C.ar    1  UNL1        0.1592
     38 F         142.2422  130.3281  155.7108 F       1  UNL1       -0.2025
     39 C         143.3791  132.2411  157.0518 C.ar    1  UNL1        0.1284
     40 N         143.5420  133.7031  157.3448 N.ar    1  UNL1       -0.2399
@<TRIPOS>BOND
     1    22    23    1
     2    23    24   ar
     3    24    25   ar
     4     1    25    1
     5     1    15    1
     6    15    16   ar
     7    16    17   ar
     8    17    18    1
     9    17    19   ar
    10    19    20    2
    11    19    21   ar
    12     1     2    1
    13     2     3    1
    14     3    28    1
    15    28    29   ar
    16    29    30   ar
    17    30    34    1
    18    34    35   ar
    19    35    36   ar
    20    36    37   ar
    21    37    38    1
    22    37    39   ar
    23    39    40   ar
    24    30    31   ar
    25    31    32   ar
    26     3     4    1
    27     4     5    1
    28     5     6    2
    29     6     7    1
    30     7     8    2
    31     8     9    1
    32     9    10    1
    33    10    11    2
    34    11    12    1
    35    12    13    2
    36    25    26   ar
    37    26    27   ar
    38    27    23   ar
    39     6     1    1
    40    13     8    1
    41    21    15   ar
    42    32    28   ar
    43    13     5    1
    44    40    34   ar
    45     2    14    1
    46    32    33    1
@<TRIPOS>MOLECULE
*****
 40 46 0 0 0
SMALL
GASTEIGER

@<TRIPOS>ATOM
      1 C         142.3242  142.7309  160.2108 C.3     1  UNL1        0.1707
      2 N         141.8241  143.3407  158.9348 N.3     1  UNL1       -0.2797
      3 C         140.6315  144.2502  158.9553 C.3     1  UNL1        0.1167
      4 C         139.9389  144.5499  160.2516 C.3     1  UNL1        0.0511
      5 C         140.4389  143.9400  161.5276 C.2     1  UNL1       -0.0037
      6 C         141.6316  143.0305  161.5071 C.2     1  UNL1        0.0800
      7 N         141.8943  142.5792  162.9133 N.2     1  UNL1       -0.2519
      8 C         140.8641  143.2097  163.8027 C.2     1  UNL1        0.0627
      9 C         140.6289  143.1266  165.2818 C.3     1  UNL1        0.0717
     10 C         139.4942  143.8847  165.9045 C.2     1  UNL1       -0.0198
     11 C         138.5947  144.7257  165.0480 C.2     1  UNL1       -0.0042
     12 C         138.8299  144.8088  163.5690 C.2     1  UNL1        0.0006
     13 C         139.9646  144.0508  162.9463 C.2     1  UNL1        0.0111
     14 H         141.5947  142.5683  158.3094 H       1  UNL1        0.1246
     15 C         143.1663  141.9190  161.1498 C.ar    1  UNL1        0.2493
     16 N         142.8771  140.5206  161.6085 N.ar    1  UNL1       -0.1285
     17 N         143.9776  140.1005  162.5373 N.ar    1  UNL1       -0.1809
     18 C         144.0891  138.7743  163.2292 C.3     1  UNL1        0.1605
     19 C         144.9469  141.2394  162.6525 C.ar    1  UNL1        0.4389
     20 O         146.1980  141.2520  163.4799 O.2     1  UNL1       -0.2210
     21 O         144.4455  142.3633  161.7950 O.2     1  UNL1       -0.3896
     22 C         146.3427  142.2407  156.8208 C.3     1  UNL1        0.1537
     23 N         145.1563  141.9239  157.6824 N.ar    1  UNL1       -0.2476
     24 C         144.4242  142.8911  158.5648 C.ar    1  UNL1        0.0945
     25 C         143.3092  142.1493  159.2406 C.ar    1  UNL1        0.0439
     26 C         143.3523  140.7237  158.7758 C.ar    1  UNL1        0.1194
     27 N         144.4939  140.5845  157.8127 N.ar    1  UNL1       -0.1679
     28 C         140.1314  144.8601  157.6793 C.ar    1  UNL1        0.1319
     29 N         140.3571  146.2733  157.2299 N.ar    1  UNL1       -0.2282
     30 C         139.6830  146.4505  155.9016 C.ar    1  UNL1        0.1171
     31 C         139.0408  145.1468  155.5301 C.ar    1  UNL1        0.0942
     32 N         139.3180  144.1639  156.6288 N.ar    1  UNL1       -0.3385
     33 H         139.0185  143.2264  156.6557 H       1  UNL1        0.1672
     34 C         139.6560  147.7102  155.0877 C.ar    1  UNL1        0.1006
     35 C         140.2972  147.7412  153.7321 C.ar    1  UNL1        0.0230
     36 C         140.2702  149.0009  152.9182 C.ar    1  UNL1        0.0328
     37 C         139.6019  150.2296  153.4600 C.ar    1  UNL1        0.1592
     38 F         139.5748  151.4894  152.6461 F       1  UNL1       -0.2025
     39 C         138.9607  150.1986  154.8157 C.ar    1  UNL1        0.1284
     40 N         138.9877  148.9390  155.6295 N.ar    1  UNL1       -0.2399
@<TRIPOS>BOND
     1    22    23    1
     2    23    24   ar
     3    24    25   ar
     4     1    25    1
     5     1    15    1
     6    15    16   ar
     7    16    17   ar
     8    17    18    1
     9    17    19   ar
    10    19    20    2
    11    19    21   ar
    12     1     2    1
    13     2     3    1
    14     3    28    1
    15    28    29   ar
    16    29    30   ar
    17    30    34    1
    18    34    35   ar
    19    35    36   ar
    20    36    37   ar
    21    37    38    1
    22    37    39   ar
    23    39    40   ar
    24    30    31   ar
    25    31    32   ar
    26     3     4    1
    27     4     5    1
    28     5     6    2
    29     6     7    1
    30     7     8    2
    31     8     9    1
    32     9    10    1
    33    10    11    2
    34    11    12    1
    35    12    13    2
    36    25    26   ar
    37    26    27   ar
    38    27    23   ar
    39     6     1    1
    40    13     8    1
    41    21    15   ar
    42    32    28   ar
    43    13     5    1
    44    40    34   ar
    45     2    14    1
    46    32    33    1
@<TRIPOS>MOLECULE
*****
 40 46 0 0 0
SMALL
GASTEIGER

@<TRIPOS>ATOM
      1 C         141.3228  141.3024  160.3708 C.3     1  UNL1        0.1707
      2 N         141.8298  140.3976  159.2873 N.3     1  UNL1       -0.2797
      3 C         141.7061  138.9099  159.4335 C.3     1  UNL1        0.1167
      4 C         141.0754  138.3270  160.6633 C.3     1  UNL1        0.0511
      5 C         140.5684  139.2318  161.7469 C.2     1  UNL1       -0.0037
      6 C         140.6921  140.7195  161.6007 C.2     1  UNL1        0.0800
      7 N         140.1056  141.3560  162.8258 N.2     1  UNL1       -0.2519
      8 C         139.6195  140.2617  163.7292 C.2     1  UNL1        0.0627
      9 C         138.9533  140.2911  165.0728 C.3     1  UNL1        0.0717
     10 C         138.5731  139.0076  165.7496 C.2     1  UNL1       -0.0198
     11 C         138.8591  137.6948  165.0828 C.2     1  UNL1       -0.0042
     12 C         139.5253  137.6654  163.7392 C.2     1  UNL1        0.0006
     13 C         139.9055  138.9489  163.0624 C.2     1  UNL1        0.0111
     14 H         142.8230  140.6008  159.1747 H       1  UNL1        0.1246
     15 C         140.9954  142.5616  161.1175 C.ar    1  UNL1        0.2493
     16 N         141.8651  143.2325  162.1388 N.ar    1  UNL1       -0.1285
     17 N         141.1478  144.4564  162.6263 N.ar    1  UNL1       -0.1809
     18 C         141.6547  145.4248  163.6536 C.3     1  UNL1        0.1605
     19 C         139.8348  144.5418  161.9062 C.ar    1  UNL1        0.4389
     20 O         138.7980  145.6107  162.0868 O.2     1  UNL1       -0.2210
     21 O         139.7406  143.3707  160.9736 O.2     1  UNL1       -0.3896
     22 C         141.6224  144.6982  156.3385 C.3     1  UNL1        0.1537
     23 N         141.9776  143.8835  157.5469 N.ar    1  UNL1       -0.2476
     24 C         141.0792  142.9076  158.2474 C.ar    1  UNL1        0.0945
     25 C         141.8398  142.3226  159.4003 C.ar    1  UNL1        0.0439
     26 C         143.2082  142.9369  159.4123 C.ar    1  UNL1        0.1194
     27 N         143.2933  143.9016  158.2668 N.ar    1  UNL1       -0.1679
     28 C         142.2131  138.0049  158.3499 C.ar    1  UNL1        0.1319
     29 N         142.6030  136.5658  158.5137 N.ar    1  UNL1       -0.2282
     30 C         143.0501  136.0517  157.1773 C.ar    1  UNL1        0.1171
     31 C         142.9365  137.1732  156.1876 C.ar    1  UNL1        0.0942
     32 N         142.4192  138.3803  156.9123 N.ar    1  UNL1       -0.3385
     33 H         142.2454  139.2639  156.5143 H       1  UNL1        0.1672
     34 C         143.5270  134.6604  156.8824 C.ar    1  UNL1        0.1006
     35 C         143.3031  134.0628  155.5250 C.ar    1  UNL1        0.0230
     36 C         143.7801  132.6716  155.2301 C.ar    1  UNL1        0.0328
     37 C         144.4808  131.8780  156.2926 C.ar    1  UNL1        0.1592
     38 F         144.9578  130.4867  155.9978 F       1  UNL1       -0.2025
     39 C         144.7047  132.4756  157.6501 C.ar    1  UNL1        0.1284
     40 N         144.2278  133.8669  157.9450 N.ar    1  UNL1       -0.2399
@<TRIPOS>BOND
     1    22    23    1
     2    23    24   ar
     3    24    25   ar
     4     1    25    1
     5     1    15    1
     6    15    16   ar
     7    16    17   ar
     8    17    18    1
     9    17    19   ar
    10    19    20    2
    11    19    21   ar
    12     1     2    1
    13     2     3    1
    14     3    28    1
    15    28    29   ar
    16    29    30   ar
    17    30    34    1
    18    34    35   ar
    19    35    36   ar
    20    36    37   ar
    21    37    38    1
    22    37    39   ar
    23    39    40   ar
    24    30    31   ar
    25    31    32   ar
    26     3     4    1
    27     4     5    1
    28     5     6    2
    29     6     7    1
    30     7     8    2
    31     8     9    1
    32     9    10    1
    33    10    11    2
    34    11    12    1
    35    12    13    2
    36    25    26   ar
    37    26    27   ar
    38    27    23   ar
    39     6     1    1
    40    13     8    1
    41    21    15   ar
    42    32    28   ar
    43    13     5    1
    44    40    34   ar
    45     2    14    1
    46    32    33    1
@<TRIPOS>MOLECULE
*****
 40 46 0 0 0
SMALL
GASTEIGER

@<TRIPOS>ATOM
      1 C         141.5417  141.6238  160.6663 C.3     1  UNL1        0.1707
      2 N         141.2266  142.2880  159.3589 N.3     1  UNL1       -0.2797
      3 C         140.3764  143.5235  159.3310 C.3     1  UNL1        0.1167
      4 C         139.8413  144.0947  160.6106 C.3     1  UNL1        0.0511
      5 C         140.1563  143.4305  161.9181 C.2     1  UNL1       -0.0037
      6 C         141.0065  142.1950  161.9459 C.2     1  UNL1        0.0800
      7 N         141.1484  141.7622  163.3751 N.2     1  UNL1       -0.2519
      8 C         140.3859  142.7301  164.2305 C.2     1  UNL1        0.0627
      9 C         140.1706  142.8058  165.7130 C.3     1  UNL1        0.0717
     10 C         139.3423  143.9126  166.2950 C.2     1  UNL1       -0.0198
     11 C         138.7291  144.9437  165.3945 C.2     1  UNL1       -0.0042
     12 C         138.9444  144.8680  163.9120 C.2     1  UNL1        0.0006
     13 C         139.7727  143.7612  163.3300 C.2     1  UNL1        0.0111
     14 H         140.7542  141.5924  158.7815 H       1  UNL1        0.1246
     15 C         142.1113  140.6428  161.6479 C.ar    1  UNL1        0.2493
     16 N         141.4058  139.4418  162.2044 N.ar    1  UNL1       -0.1285
     17 N         142.3450  138.7475  163.1457 N.ar    1  UNL1       -0.1809
     18 C         142.0500  137.5002  163.9249 C.3     1  UNL1        0.1605
     19 C         143.6308  139.5194  163.1709 C.ar    1  UNL1        0.4389
     20 O         144.8475  139.1796  163.9797 O.2     1  UNL1       -0.2210
     21 O         143.4864  140.6909  162.2451 O.2     1  UNL1       -0.3896
     22 C         142.6709  137.6253  157.4078 C.3     1  UNL1        0.1537
     23 N         142.7937  138.8740  158.2299 N.ar    1  UNL1       -0.2476
     24 C         141.7202  139.4727  159.0897 C.ar    1  UNL1        0.0945
     25 C         142.2746  140.7119  159.7277 C.ar    1  UNL1        0.0439
     26 C         143.6907  140.8791  159.2621 C.ar    1  UNL1        0.1194
     27 N         144.0115  139.7432  158.3364 N.ar    1  UNL1       -0.1679
     28 C         140.0613  144.1878  158.0235 C.ar    1  UNL1        0.1319
     29 N         140.0758  145.6641  157.7586 N.ar    1  UNL1       -0.2282
     30 C         139.6999  145.8811  156.3228 C.ar    1  UNL1        0.1171
     31 C         139.4531  144.5389  155.7003 C.ar    1  UNL1        0.0942
     32 N         139.6765  143.4923  156.7514 N.ar    1  UNL1       -0.3385
     33 H         139.5864  142.5198  156.6280 H       1  UNL1        0.1672
     34 C         139.5900  147.2076  155.6310 C.ar    1  UNL1        0.1006
     35 C         140.2641  147.4216  154.3081 C.ar    1  UNL1        0.0230
     36 C         140.1543  148.7479  153.6163 C.ar    1  UNL1        0.0328
     37 C         139.3704  149.8603  154.2473 C.ar    1  UNL1        0.1592
     38 F         139.2605  151.1867  153.5554 F       1  UNL1       -0.2025
     39 C         138.6963  149.6462  155.5701 C.ar    1  UNL1        0.1284
     40 N         138.8061  148.3199  156.2619 N.ar    1  UNL1       -0.2399
@<TRIPOS>BOND
     1    22    23    1
     2    23    24   ar
     3    24    25   ar
     4     1    25    1
     5     1    15    1
     6    15    16   ar
     7    16    17   ar
     8    17    18    1
     9    17    19   ar
    10    19    20    2
    11    19    21   ar
    12     1     2    1
    13     2     3    1
    14     3    28    1
    15    28    29   ar
    16    29    30   ar
    17    30    34    1
    18    34    35   ar
    19    35    36   ar
    20    36    37   ar
    21    37    38    1
    22    37    39   ar
    23    39    40   ar
    24    30    31   ar
    25    31    32   ar
    26     3     4    1
    27     4     5    1
    28     5     6    2
    29     6     7    1
    30     7     8    2
    31     8     9    1
    32     9    10    1
    33    10    11    2
    34    11    12    1
    35    12    13    2
    36    25    26   ar
    37    26    27   ar
    38    27    23   ar
    39     6     1    1
    40    13     8    1
    41    21    15   ar
    42    32    28   ar
    43    13     5    1
    44    40    34   ar
    45     2    14    1
    46    32    33    1
@<TRIPOS>MOLECULE
*****
 40 46 0 0 0
SMALL
GASTEIGER

@<TRIPOS>ATOM
      1 C         141.1064  140.2350  159.7631 C.3     1  UNL1        0.1707
      2 N         141.6624  138.9966  159.1251 N.3     1  UNL1       -0.2797
      3 C         142.3387  139.0803  157.7888 C.3     1  UNL1        0.1167
      4 C         142.4589  140.4025  157.0906 C.3     1  UNL1        0.0511
      5 C         141.9029  141.6409  157.7287 C.2     1  UNL1       -0.0037
      6 C         141.2266  141.5571  159.0649 C.2     1  UNL1        0.0800
      7 N         140.7783  142.9372  159.4448 N.2     1  UNL1       -0.2519
      8 C         141.1775  143.8739  158.3434 C.2     1  UNL1        0.0627
      9 C         140.9979  145.3529  158.1692 C.3     1  UNL1        0.0717
     10 C         141.5134  146.0307  156.9343 C.2     1  UNL1       -0.0198
     11 C         142.2084  145.2295  155.8737 C.2     1  UNL1       -0.0042
     12 C         142.3880  143.7505  156.0479 C.2     1  UNL1        0.0006
     13 C         141.8725  143.0727  157.2827 C.2     1  UNL1        0.0111
     14 H         140.8851  138.3443  159.0213 H       1  UNL1        0.1246
     15 C         140.4265  141.1212  160.7645 C.ar    1  UNL1        0.2493
     16 N         141.1003  141.8911  161.8613 N.ar    1  UNL1       -0.1285
     17 N         140.0437  142.6387  162.6194 N.ar    1  UNL1       -0.1809
     18 C         140.2736  143.5366  163.7987 C.3     1  UNL1        0.1605
     19 C         138.7169  142.3308  161.9911 C.ar    1  UNL1        0.4389
     20 O         137.3870  142.8667  162.4318 O.2     1  UNL1       -0.2210
     21 O         138.9535  141.3928  160.8446 O.2     1  UNL1       -0.3896
     22 C         141.2986  137.1723  164.0601 C.3     1  UNL1        0.1537
     23 N         140.8383  137.8128  162.7842 N.ar    1  UNL1       -0.2476
     24 C         141.5708  138.8723  162.0153 C.ar    1  UNL1        0.0945
     25 C         140.7500  139.2206  160.8091 C.ar    1  UNL1        0.0439
     26 C         139.5103  138.3764  160.8325 C.ar    1  UNL1        0.1194
     27 N         139.5649  137.5064  162.0532 N.ar    1  UNL1       -0.1679
     28 C         142.8948  137.8419  157.1507 C.ar    1  UNL1        0.1319
     29 N         142.5681  136.4293  157.5351 N.ar    1  UNL1       -0.2282
     30 C         143.3465  135.5130  156.6381 C.ar    1  UNL1        0.1171
     31 C         144.1544  136.3594  155.6995 C.ar    1  UNL1        0.0942
     32 N         143.8752  137.7987  156.0162 N.ar    1  UNL1       -0.3385
     33 H         144.2666  138.5782  155.5597 H       1  UNL1        0.1672
     34 C         143.3216  134.0136  156.6737 C.ar    1  UNL1        0.1006
     35 C         142.2469  133.2639  155.9436 C.ar    1  UNL1        0.0230
     36 C         142.2218  131.7646  155.9791 C.ar    1  UNL1        0.0328
     37 C         143.2715  131.0149  156.7447 C.ar    1  UNL1        0.1592
     38 F         143.2465  129.5155  156.7802 F       1  UNL1       -0.2025
     39 C         144.3462  131.7646  157.4748 C.ar    1  UNL1        0.1284
     40 N         144.3712  133.2640  157.4393 N.ar    1  UNL1       -0.2399
@<TRIPOS>BOND
     1    22    23    1
     2    23    24   ar
     3    24    25   ar
     4     1    25    1
     5     1    15    1
     6    15    16   ar
     7    16    17   ar
     8    17    18    1
     9    17    19   ar
    10    19    20    2
    11    19    21   ar
    12     1     2    1
    13     2     3    1
    14     3    28    1
    15    28    29   ar
    16    29    30   ar
    17    30    34    1
    18    34    35   ar
    19    35    36   ar
    20    36    37   ar
    21    37    38    1
    22    37    39   ar
    23    39    40   ar
    24    30    31   ar
    25    31    32   ar
    26     3     4    1
    27     4     5    1
    28     5     6    2
    29     6     7    1
    30     7     8    2
    31     8     9    1
    32     9    10    1
    33    10    11    2
    34    11    12    1
    35    12    13    2
    36    25    26   ar
    37    26    27   ar
    38    27    23   ar
    39     6     1    1
    40    13     8    1
    41    21    15   ar
    42    32    28   ar
    43    13     5    1
    44    40    34   ar
    45     2    14    1
    46    32    33    1
@<TRIPOS>MOLECULE
*****
 40 46 0 0 0
SMALL
GASTEIGER

@<TRIPOS>ATOM
      1 C         140.5099  141.3163  160.0222 C.3     1  UNL1        0.1707
      2 N         140.8890  141.0262  161.4442 N.3     1  UNL1       -0.2797
      3 C         141.6769  139.7931  161.7736 C.3     1  UNL1        0.1167
      4 C         142.0858  138.8501  160.6811 C.3     1  UNL1        0.0511
      5 C         141.7067  139.1402  159.2591 C.2     1  UNL1       -0.0037
      6 C         140.9187  140.3733  158.9297 C.2     1  UNL1        0.0800
      7 N         140.6916  140.3959  157.4471 N.2     1  UNL1       -0.2519
      8 C         141.3391  139.1767  156.8603 C.2     1  UNL1        0.0627
      9 C         141.4385  138.6730  155.4510 C.3     1  UNL1        0.0717
     10 C         142.1653  137.3932  155.1615 C.2     1  UNL1       -0.0198
     11 C         142.7927  136.6171  156.2814 C.2     1  UNL1       -0.0042
     12 C         142.6933  137.1209  157.6907 C.2     1  UNL1        0.0006
     13 C         141.9665  138.4006  157.9802 C.2     1  UNL1        0.0111
     14 H         140.0199  140.9709  161.9752 H       1  UNL1        0.1246
     15 C         139.9173  142.0186  158.8366 C.ar    1  UNL1        0.2493
     16 N         138.5349  141.8150  158.2914 N.ar    1  UNL1       -0.1285
     17 N         138.3664  142.7185  157.1059 N.ar    1  UNL1       -0.1809
     18 C         137.1357  142.8388  156.2569 C.3     1  UNL1        0.1605
     19 C         139.6448  143.4804  156.9184 C.ar    1  UNL1        0.4389
     20 O         139.9169  144.4964  155.8490 O.2     1  UNL1       -0.2210
     21 O         140.6033  143.0479  157.9880 O.2     1  UNL1       -0.3896
     22 C         139.7735  146.1784  161.9454 C.3     1  UNL1        0.1537
     23 N         139.5567  144.7381  161.5870 N.ar    1  UNL1       -0.2476
     24 C         140.5167  143.8617  160.8384 C.ar    1  UNL1        0.0945
     25 C         139.8952  142.5032  160.7030 C.ar    1  UNL1        0.0439
     26 C         138.5511  142.5400  161.3679 C.ar    1  UNL1        0.1194
     27 N         138.3419  143.9213  161.9142 N.ar    1  UNL1       -0.1679
     28 C         142.0561  139.5029  163.1957 C.ar    1  UNL1        0.1319
     29 N         141.2852  139.9139  164.4150 N.ar    1  UNL1       -0.2282
     30 C         142.0253  139.4158  165.6210 C.ar    1  UNL1        0.1171
     31 C         143.2535  138.6970  165.1469 C.ar    1  UNL1        0.0942
     32 N         143.2725  138.7508  163.6480 N.ar    1  UNL1       -0.3385
     33 H         143.9623  138.3610  163.0636 H       1  UNL1        0.1672
     34 C         141.6100  139.6036  167.0501 C.ar    1  UNL1        0.1006
     35 C         142.5870  139.3359  168.1563 C.ar    1  UNL1        0.0230
     36 C         142.1718  139.5237  169.5854 C.ar    1  UNL1        0.0328
     37 C         140.7796  139.9792  169.9082 C.ar    1  UNL1        0.1592
     38 F         140.3643  140.1669  171.3374 F       1  UNL1       -0.2025
     39 C         139.8026  140.2468  168.8020 C.ar    1  UNL1        0.1284
     40 N         140.2178  140.0591  167.3729 N.ar    1  UNL1       -0.2399
@<TRIPOS>BOND
     1    22    23    1
     2    23    24   ar
     3    24    25   ar
     4     1    25    1
     5     1    15    1
     6    15    16   ar
     7    16    17   ar
     8    17    18    1
     9    17    19   ar
    10    19    20    2
    11    19    21   ar
    12     1     2    1
    13     2     3    1
    14     3    28    1
    15    28    29   ar
    16    29    30   ar
    17    30    34    1
    18    34    35   ar
    19    35    36   ar
    20    36    37   ar
    21    37    38    1
    22    37    39   ar
    23    39    40   ar
    24    30    31   ar
    25    31    32   ar
    26     3     4    1
    27     4     5    1
    28     5     6    2
    29     6     7    1
    30     7     8    2
    31     8     9    1
    32     9    10    1
    33    10    11    2
    34    11    12    1
    35    12    13    2
    36    25    26   ar
    37    26    27   ar
    38    27    23   ar
    39     6     1    1
    40    13     8    1
    41    21    15   ar
    42    32    28   ar
    43    13     5    1
    44    40    34   ar
    45     2    14    1
    46    32    33    1
@<TRIPOS>MOLECULE
*****
 40 46 0 0 0
SMALL
GASTEIGER

@<TRIPOS>ATOM
      1 C         140.0645  140.4763  160.2591 C.3     1  UNL1        0.1707
      2 N         140.7232  140.4354  161.6061 N.3     1  UNL1       -0.2797
      3 C         141.8669  139.4969  161.8534 C.3     1  UNL1        0.1167
      4 C         142.3519  138.5995  160.7537 C.3     1  UNL1        0.0511
      5 C         141.6933  138.6404  159.4067 C.2     1  UNL1       -0.0037
      6 C         140.5495  139.5789  159.1594 C.2     1  UNL1        0.0800
      7 N         140.1007  139.3985  157.7395 N.2     1  UNL1       -0.2519
      8 C         140.9671  138.3487  157.1093 C.2     1  UNL1        0.0627
      9 C         140.9869  137.7588  155.7303 C.3     1  UNL1        0.0717
     10 C         141.9910  136.7004  155.3817 C.2     1  UNL1       -0.0198
     11 C         142.9753  136.2319  156.4121 C.2     1  UNL1       -0.0042
     12 C         142.9554  136.8217  157.7911 C.2     1  UNL1        0.0006
     13 C         141.9514  137.8801  158.1397 C.2     1  UNL1        0.0111
     14 H         139.9968  140.1988  162.2820 H       1  UNL1        0.1246
     15 C         139.1238  140.8773  159.1616 C.ar    1  UNL1        0.2493
     16 N         139.2610  142.0826  158.2794 N.ar    1  UNL1       -0.1285
     17 N         138.1028  142.0935  157.3262 N.ar    1  UNL1       -0.1809
     18 C         137.8432  143.1224  156.2660 C.3     1  UNL1        0.1605
     19 C         137.2499  140.8950  157.6194 C.ar    1  UNL1        0.4389
     20 O         135.9875  140.5149  156.9038 O.2     1  UNL1       -0.2210
     21 O         137.8809  140.1433  158.7538 O.2     1  UNL1       -0.3896
     22 C         138.5943  144.9940  162.5636 C.3     1  UNL1        0.1537
     23 N         138.5769  143.5896  162.0369 N.ar    1  UNL1       -0.2476
     24 C         139.7034  142.9010  161.3248 C.ar    1  UNL1        0.0945
     25 C         139.2527  141.5130  160.9776 C.ar    1  UNL1        0.0439
     26 C         137.8478  141.3438  161.4751 C.ar    1  UNL1        0.1194
     27 N         137.4301  142.6272  162.1298 N.ar    1  UNL1       -0.1679
     28 C         142.5257  139.4559  163.2005 C.ar    1  UNL1        0.1319
     29 N         141.9950  140.0729  164.4605 N.ar    1  UNL1       -0.2282
     30 C         142.9720  139.7891  165.5627 C.ar    1  UNL1        0.1171
     31 C         144.1065  138.9966  164.9838 C.ar    1  UNL1        0.0942
     32 N         143.8306  138.7907  163.5239 N.ar    1  UNL1       -0.3385
     33 H         144.4051  138.3044  162.8894 H       1  UNL1        0.1672
     34 C         142.8381  140.2217  166.9927 C.ar    1  UNL1        0.1006
     35 C         142.6315  139.1983  168.0697 C.ar    1  UNL1        0.0230
     36 C         142.4976  139.6309  169.4997 C.ar    1  UNL1        0.0328
     37 C         142.5702  141.0869  169.8527 C.ar    1  UNL1        0.1592
     38 F         142.4363  141.5195  171.2827 F       1  UNL1       -0.2025
     39 C         142.7768  142.1103  168.7757 C.ar    1  UNL1        0.1284
     40 N         142.9108  141.6777  167.3457 N.ar    1  UNL1       -0.2399
@<TRIPOS>BOND
     1    22    23    1
     2    23    24   ar
     3    24    25   ar
     4     1    25    1
     5     1    15    1
     6    15    16   ar
     7    16    17   ar
     8    17    18    1
     9    17    19   ar
    10    19    20    2
    11    19    21   ar
    12     1     2    1
    13     2     3    1
    14     3    28    1
    15    28    29   ar
    16    29    30   ar
    17    30    34    1
    18    34    35   ar
    19    35    36   ar
    20    36    37   ar
    21    37    38    1
    22    37    39   ar
    23    39    40   ar
    24    30    31   ar
    25    31    32   ar
    26     3     4    1
    27     4     5    1
    28     5     6    2
    29     6     7    1
    30     7     8    2
    31     8     9    1
    32     9    10    1
    33    10    11    2
    34    11    12    1
    35    12    13    2
    36    25    26   ar
    37    26    27   ar
    38    27    23   ar
    39     6     1    1
    40    13     8    1
    41    21    15   ar
    42    32    28   ar
    43    13     5    1
    44    40    34   ar
    45     2    14    1
    46    32    33    1
@<TRIPOS>MOLECULE
*****
 40 46 0 0 0
SMALL
GASTEIGER

@<TRIPOS>ATOM
      1 C         140.2569  141.3843  159.6431 C.3     1  UNL1        0.1707
      2 N         140.1977  140.5200  158.4187 N.3     1  UNL1       -0.2797
      3 C         139.8630  139.0632  158.5444 C.3     1  UNL1        0.1167
      4 C         139.5875  138.4708  159.8947 C.3     1  UNL1        0.0511
      5 C         139.6468  139.3352  161.1192 C.2     1  UNL1       -0.0037
      6 C         139.9815  140.7919  160.9934 C.2     1  UNL1        0.0800
      7 N         139.9662  141.3914  162.3683 N.2     1  UNL1       -0.2519
      8 C         139.6220  140.3051  163.3438 C.2     1  UNL1        0.0627
      9 C         139.4629  140.3090  164.8353 C.3     1  UNL1        0.0717
     10 C         139.1064  139.0421  165.5548 C.2     1  UNL1       -0.0198
     11 C         138.9090  137.7712  164.7828 C.2     1  UNL1       -0.0042
     12 C         139.0681  137.7673  163.2913 C.2     1  UNL1        0.0006
     13 C         139.4246  139.0343  162.5718 C.2     1  UNL1        0.0111
     14 H         141.1147  140.5742  157.9753 H       1  UNL1        0.1246
     15 C         140.4331  142.6012  160.5024 C.ar    1  UNL1        0.2493
     16 N         139.3877  143.6384  160.7869 N.ar    1  UNL1       -0.1285
     17 N         139.9942  144.6727  161.6884 N.ar    1  UNL1       -0.1809
     18 C         139.3019  145.8911  162.2233 C.3     1  UNL1        0.1605
     19 C         141.4144  144.2746  161.9609 C.ar    1  UNL1        0.4389
     20 O         142.3918  145.0250  162.8163 O.2     1  UNL1       -0.2210
     21 O         141.6857  142.9943  161.2279 O.2     1  UNL1       -0.3896
     22 C         139.7947  145.0727  155.8930 C.3     1  UNL1        0.1537
     23 N         140.3812  144.0947  156.8676 N.ar    1  UNL1       -0.2476
     24 C         139.6094  143.2118  157.8030 C.ar    1  UNL1        0.0945
     25 C         140.5936  142.3993  158.5913 C.ar    1  UNL1        0.0439
     26 C         141.9735  142.7802  158.1432 C.ar    1  UNL1        0.1194
     27 N         141.8422  143.8280  157.0778 N.ar    1  UNL1       -0.1679
     28 C         139.8037  138.1988  157.3199 C.ar    1  UNL1        0.1319
     29 N         140.7659  137.1037  156.9664 N.ar    1  UNL1       -0.2282
     30 C         140.3288  136.5059  155.6620 C.ar    1  UNL1        0.1171
     31 C         139.0965  137.2315  155.2094 C.ar    1  UNL1        0.0942
     32 N         138.7720  138.2778  156.2340 N.ar    1  UNL1       -0.3385
     33 H         138.0148  138.9061  156.1998 H       1  UNL1        0.1672
     34 C         141.0052  135.3800  154.9375 C.ar    1  UNL1        0.1006
     35 C         140.8869  135.2694  153.4462 C.ar    1  UNL1        0.0230
     36 C         141.5634  134.1436  152.7217 C.ar    1  UNL1        0.0328
     37 C         142.3580  133.1284  153.4883 C.ar    1  UNL1        0.1592
     38 F         143.0345  132.0026  152.7638 F       1  UNL1       -0.2025
     39 C         142.4763  133.2390  154.9796 C.ar    1  UNL1        0.1284
     40 N         141.7999  134.3648  155.7041 N.ar    1  UNL1       -0.2399
@<TRIPOS>BOND
     1    22    23    1
     2    23    24   ar
     3    24    25   ar
     4     1    25    1
     5     1    15    1
     6    15    16   ar
     7    16    17   ar
     8    17    18    1
     9    17    19   ar
    10    19    20    2
    11    19    21   ar
    12     1     2    1
    13     2     3    1
    14     3    28    1
    15    28    29   ar
    16    29    30   ar
    17    30    34    1
    18    34    35   ar
    19    35    36   ar
    20    36    37   ar
    21    37    38    1
    22    37    39   ar
    23    39    40   ar
    24    30    31   ar
    25    31    32   ar
    26     3     4    1
    27     4     5    1
    28     5     6    2
    29     6     7    1
    30     7     8    2
    31     8     9    1
    32     9    10    1
    33    10    11    2
    34    11    12    1
    35    12    13    2
    36    25    26   ar
    37    26    27   ar
    38    27    23   ar
    39     6     1    1
    40    13     8    1
    41    21    15   ar
    42    32    28   ar
    43    13     5    1
    44    40    34   ar
    45     2    14    1
    46    32    33    1
@<TRIPOS>MOLECULE
*****
 40 46 0 0 0
SMALL
GASTEIGER

@<TRIPOS>ATOM
      1 C         139.6267  141.9931  158.8706 C.3     1  UNL1        0.1707
      2 N         139.5158  142.9257  157.7009 N.3     1  UNL1       -0.2797
      3 C         139.9212  144.3625  157.8463 C.3     1  UNL1        0.1167
      4 C         140.4374  144.8668  159.1614 C.3     1  UNL1        0.0511
      5 C         140.5483  143.9343  160.3310 C.2     1  UNL1       -0.0037
      6 C         140.1429  142.4974  160.1856 C.2     1  UNL1        0.0800
      7 N         140.3619  141.8183  161.5050 N.2     1  UNL1       -0.2519
      8 C         140.9027  142.8353  162.4658 C.2     1  UNL1        0.0627
      9 C         141.3051  142.7396  163.9076 C.3     1  UNL1        0.0717
     10 C         141.8226  143.9516  164.6238 C.2     1  UNL1       -0.0198
     11 C         141.9378  145.2594  163.8982 C.2     1  UNL1       -0.0042
     12 C         141.5354  145.3552  162.4564 C.2     1  UNL1        0.0006
     13 C         141.0178  144.1431  161.7402 C.2     1  UNL1        0.0111
     14 H         138.5369  142.9235  157.4143 H       1  UNL1        0.1246
     15 C         139.5488  140.7335  159.6814 C.ar    1  UNL1        0.2493
     16 N         138.3179  140.1816  160.3370 N.ar    1  UNL1       -0.1285
     17 N         138.6967  138.9116  161.0397 N.ar    1  UNL1       -0.1809
     18 C         137.7726  138.0296  161.8257 C.3     1  UNL1        0.1605
     19 C         140.1618  138.6787  160.8182 C.ar    1  UNL1        0.4389
     20 O         140.9601  137.5227  161.3440 O.2     1  UNL1       -0.2210
     21 O         140.6885  139.8047  159.9787 O.2     1  UNL1       -0.3896
     22 C         139.2812  138.1553  155.2604 C.3     1  UNL1        0.1537
     23 N         138.9246  139.2874  156.1778 N.ar    1  UNL1       -0.2476
     24 C         139.8599  139.9884  157.1179 C.ar    1  UNL1        0.0945
     25 C         139.0834  141.0514  157.8372 C.ar    1  UNL1        0.0439
     26 C         137.6683  141.0072  157.3415 C.ar    1  UNL1        0.1194
     27 N         137.5702  139.9170  156.3159 N.ar    1  UNL1       -0.1679
     28 C         139.8104  145.2952  156.6767 C.ar    1  UNL1        0.1319
     29 N         139.6008  146.7787  156.7488 N.ar    1  UNL1       -0.2282
     30 C         139.5506  147.3084  155.3464 C.ar    1  UNL1        0.1171
     31 C         139.7291  146.1523  154.4075 C.ar    1  UNL1        0.0942
     32 N         139.8897  144.9080  155.2297 N.ar    1  UNL1       -0.3385
     33 H         140.0237  143.9972  154.8809 H       1  UNL1        0.1672
     34 C         139.3559  148.7425  154.9520 C.ar    1  UNL1        0.1006
     35 C         139.8657  149.2324  153.6291 C.ar    1  UNL1        0.0230
     36 C         139.6711  150.6664  153.2347 C.ar    1  UNL1        0.0328
     37 C         138.9667  151.6106  154.1632 C.ar    1  UNL1        0.1592
     38 F         138.7721  153.0448  153.7689 F       1  UNL1       -0.2025
     39 C         138.4569  151.1208  155.4862 C.ar    1  UNL1        0.1284
     40 N         138.6515  149.6867  155.8805 N.ar    1  UNL1       -0.2399
@<TRIPOS>BOND
     1    22    23    1
     2    23    24   ar
     3    24    25   ar
     4     1    25    1
     5     1    15    1
     6    15    16   ar
     7    16    17   ar
     8    17    18    1
     9    17    19   ar
    10    19    20    2
    11    19    21   ar
    12     1     2    1
    13     2     3    1
    14     3    28    1
    15    28    29   ar
    16    29    30   ar
    17    30    34    1
    18    34    35   ar
    19    35    36   ar
    20    36    37   ar
    21    37    38    1
    22    37    39   ar
    23    39    40   ar
    24    30    31   ar
    25    31    32   ar
    26     3     4    1
    27     4     5    1
    28     5     6    2
    29     6     7    1
    30     7     8    2
    31     8     9    1
    32     9    10    1
    33    10    11    2
    34    11    12    1
    35    12    13    2
    36    25    26   ar
    37    26    27   ar
    38    27    23   ar
    39     6     1    1
    40    13     8    1
    41    21    15   ar
    42    32    28   ar
    43    13     5    1
    44    40    34   ar
    45     2    14    1
    46    32    33    1
