@<TRIPOS>MOLECULE
*****
 24 27 0 0 0
SMALL
GASTEIGER

@<TRIPOS>ATOM
      1 C         141.1955  142.2417  166.4276 C.2     1  UNL1        0.0020
      2 C         140.7823  142.5551  167.8351 C.2     1  UNL1        0.0130
      3 C         141.1594  141.6271  168.9517 C.3     1  UNL1        0.1542
      4 C         140.3691  142.8683  169.2426 C.3     1  UNL1        0.0614
      5 C         139.9559  143.1816  170.6501 C.3     1  UNL1        0.0725
      6 N         140.3330  142.2537  171.7667 N.3     1  UNL1       -0.2972
      7 C         141.1233  141.0124  171.4757 C.3     1  UNL1        0.0725
      8 C         141.5365  140.6991  170.0682 C.3     1  UNL1        0.0614
      9 O         141.9497  140.3858  168.6607 O.3     1  UNL1       -0.4785
     10 C         142.3629  140.0725  167.2532 C.ar    1  UNL1        0.1386
     11 C         143.1533  138.8312  166.9622 C.ar    1  UNL1        0.0369
     12 C         143.5664  138.5179  165.5547 C.ar    1  UNL1        0.0031
     13 C         143.1893  139.4459  164.4381 C.ar    1  UNL1        0.0002
     14 C         142.3990  140.6871  164.7291 C.ar    1  UNL1        0.0030
     15 C         141.9858  141.0005  166.1366 C.ar    1  UNL1        0.0338
     16 H         139.4630  141.9526  172.2059 H       1  UNL1        0.1233
     17 C         140.0642  145.0256  163.0779 C.ar    1  UNL1        0.0684
     18 C         139.0046  144.2345  163.7859 C.ar    1  UNL1        0.0103
     19 C         139.3817  143.3065  164.9025 C.ar    1  UNL1        0.0007
     20 C         140.8184  143.1697  165.3110 C.ar    1  UNL1       -0.0001
     21 C         141.8781  143.9608  164.6031 C.ar    1  UNL1        0.0007
     22 C         141.5010  144.8888  163.4865 C.ar    1  UNL1        0.0103
     23 N         139.3100  146.8815  160.8448 N.1     1  UNL1       -0.1908
     24 C         139.6871  145.9536  161.9614 C.1     1  UNL1        0.1004
@<TRIPOS>BOND
     1    23    24    3
     2    24    17    1
     3    17    18   ar
     4    18    19   ar
     5    19    20   ar
     6    20     1    1
     7     1     2    2
     8     2     3    1
     9     3     4    1
    10     4     5    1
    11     5     6    1
    12     6     7    1
    13     7     8    1
    14     3     9    1
    15     9    10    1
    16    10    11   ar
    17    11    12   ar
    18    12    13   ar
    19    13    14   ar
    20    14    15   ar
    21    20    21   ar
    22    21    22   ar
    23    22    17   ar
    24    15     1    1
    25     8     3    1
    26    15    10   ar
    27     6    16    1
@<TRIPOS>MOLECULE
*****
 24 27 0 0 0
SMALL
GASTEIGER

@<TRIPOS>ATOM
      1 C         141.6615  140.4931  164.9307 C.2     1  UNL1        0.0020
      2 C         140.6307  139.7137  164.1690 C.2     1  UNL1        0.0130
      3 C         140.8578  139.3822  162.7239 C.3     1  UNL1        0.1542
      4 C         139.6000  138.9343  163.4073 C.3     1  UNL1        0.0614
      5 C         138.5693  138.1550  162.6457 C.3     1  UNL1        0.0725
      6 N         138.7965  137.8235  161.2005 N.3     1  UNL1       -0.2972
      7 C         140.0543  138.2713  160.5170 C.3     1  UNL1        0.0725
      8 C         141.0850  139.0507  161.2787 C.3     1  UNL1        0.0614
      9 O         142.1158  139.8301  162.0404 O.3     1  UNL1       -0.4785
     10 C         143.1465  140.6094  162.8021 C.ar    1  UNL1        0.1386
     11 C         144.4044  141.0573  162.1186 C.ar    1  UNL1        0.0369
     12 C         145.4351  141.8367  162.8803 C.ar    1  UNL1        0.0031
     13 C         145.2079  142.1682  164.3255 C.ar    1  UNL1        0.0002
     14 C         143.9501  141.7204  165.0089 C.ar    1  UNL1        0.0030
     15 C         142.9193  140.9409  164.2473 C.ar    1  UNL1        0.0338
     16 H         138.0183  138.2281  160.6798 H       1  UNL1        0.1233
     17 C         140.9800  141.4876  169.2662 C.ar    1  UNL1        0.0684
     18 C         141.6050  140.1781  168.8864 C.ar    1  UNL1        0.0103
     19 C         141.8322  139.8466  167.4413 C.ar    1  UNL1        0.0007
     20 C         141.4343  140.8246  166.3759 C.ar    1  UNL1       -0.0001
     21 C         140.8092  142.1343  166.7557 C.ar    1  UNL1        0.0007
     22 C         140.5821  142.4658  168.2008 C.ar    1  UNL1        0.0103
     23 N         140.5257  142.1507  172.1565 N.1     1  UNL1       -0.1908
     24 C         140.7528  141.8192  170.7114 C.1     1  UNL1        0.1004
@<TRIPOS>BOND
     1    23    24    3
     2    24    17    1
     3    17    18   ar
     4    18    19   ar
     5    19    20   ar
     6    20     1    1
     7     1     2    2
     8     2     3    1
     9     3     4    1
    10     4     5    1
    11     5     6    1
    12     6     7    1
    13     7     8    1
    14     3     9    1
    15     9    10    1
    16    10    11   ar
    17    11    12   ar
    18    12    13   ar
    19    13    14   ar
    20    14    15   ar
    21    20    21   ar
    22    21    22   ar
    23    22    17   ar
    24    15     1    1
    25     8     3    1
    26    15    10   ar
    27     6    16    1
@<TRIPOS>MOLECULE
*****
 24 27 0 0 0
SMALL
GASTEIGER

@<TRIPOS>ATOM
      1 C         141.5013  142.5202  164.7270 C.2     1  UNL1        0.0020
      2 C         140.5917  143.4604  163.9930 C.2     1  UNL1        0.0130
      3 C         141.0352  144.0757  162.6989 C.3     1  UNL1        0.1542
      4 C         139.6822  144.4006  163.2590 C.3     1  UNL1        0.0614
      5 C         138.7727  145.3408  162.5250 C.3     1  UNL1        0.0725
      6 N         139.2162  145.9561  161.2309 N.3     1  UNL1       -0.2972
      7 C         140.5692  145.6312  160.6708 C.3     1  UNL1        0.0725
      8 C         141.4787  144.6910  161.4048 C.3     1  UNL1        0.0614
      9 O         142.3883  143.7508  162.1388 O.3     1  UNL1       -0.4785
     10 C         143.2978  142.8106  162.8728 C.ar    1  UNL1        0.1386
     11 C         144.6509  142.4856  162.3128 C.ar    1  UNL1        0.0369
     12 C         145.5604  141.5454  163.0467 C.ar    1  UNL1        0.0031
     13 C         145.1168  140.9301  164.3408 C.ar    1  UNL1        0.0002
     14 C         143.7638  141.2550  164.9009 C.ar    1  UNL1        0.0030
     15 C         142.8543  142.1953  164.1669 C.ar    1  UNL1        0.0338
     16 H         139.1862  146.9675  161.3602 H       1  UNL1        0.1233
     17 C         140.1707  140.6742  168.6093 C.ar    1  UNL1        0.0684
     18 C         139.8415  140.0039  167.3084 C.ar    1  UNL1        0.0103
     19 C         140.2850  140.6192  166.0143 C.ar    1  UNL1        0.0007
     20 C         141.0577  141.9048  166.0211 C.ar    1  UNL1       -0.0001
     21 C         141.3870  142.5752  167.3220 C.ar    1  UNL1        0.0007
     22 C         140.9434  141.9599  168.6161 C.ar    1  UNL1        0.0103
     23 N         139.2836  139.4436  171.1975 N.1     1  UNL1       -0.1908
     24 C         139.7271  140.0589  169.9034 C.1     1  UNL1        0.1004
@<TRIPOS>BOND
     1    23    24    3
     2    24    17    1
     3    17    18   ar
     4    18    19   ar
     5    19    20   ar
     6    20     1    1
     7     1     2    2
     8     2     3    1
     9     3     4    1
    10     4     5    1
    11     5     6    1
    12     6     7    1
    13     7     8    1
    14     3     9    1
    15     9    10    1
    16    10    11   ar
    17    11    12   ar
    18    12    13   ar
    19    13    14   ar
    20    14    15   ar
    21    20    21   ar
    22    21    22   ar
    23    22    17   ar
    24    15     1    1
    25     8     3    1
    26    15    10   ar
    27     6    16    1
@<TRIPOS>MOLECULE
*****
 24 27 0 0 0
SMALL
GASTEIGER

@<TRIPOS>ATOM
      1 C         141.2464  142.2694  165.0514 C.2     1  UNL1        0.0020
      2 C         142.6331  142.0188  164.5370 C.2     1  UNL1        0.0130
      3 C         143.0705  142.6219  163.2351 C.3     1  UNL1        0.1542
      4 C         144.0197  141.7683  164.0227 C.3     1  UNL1        0.0614
      5 C         145.4063  141.5177  163.5084 C.3     1  UNL1        0.0725
      6 N         145.8437  142.1208  162.2065 N.3     1  UNL1       -0.2972
      7 C         144.8945  142.9744  161.4189 C.3     1  UNL1        0.0725
      8 C         143.5079  143.2250  161.9332 C.3     1  UNL1        0.0614
      9 O         142.1212  143.4756  162.4475 O.3     1  UNL1       -0.4785
     10 C         140.7347  143.7261  162.9619 C.ar    1  UNL1        0.1386
     11 C         139.7854  144.5798  162.1743 C.ar    1  UNL1        0.0369
     12 C         138.3988  144.8303  162.6886 C.ar    1  UNL1        0.0031
     13 C         137.9614  144.2272  163.9905 C.ar    1  UNL1        0.0002
     14 C         138.9106  143.3736  164.7781 C.ar    1  UNL1        0.0030
     15 C         140.2973  143.1230  164.2638 C.ar    1  UNL1        0.0338
     16 H         146.1160  141.3470  161.6003 H       1  UNL1        0.1233
     17 C         139.9343  140.4602  168.9571 C.ar    1  UNL1        0.0684
     18 C         140.6938  141.7536  168.9473 C.ar    1  UNL1        0.0103
     19 C         141.1312  142.3567  167.6454 C.ar    1  UNL1        0.0007
     20 C         140.8091  141.6664  166.3533 C.ar    1  UNL1       -0.0001
     21 C         140.0494  140.3729  166.3630 C.ar    1  UNL1        0.0007
     22 C         139.6121  139.7698  167.6650 C.ar    1  UNL1        0.0103
     23 N         139.0595  139.2541  171.5610 N.1     1  UNL1       -0.1908
     24 C         139.4969  139.8571  170.2591 C.1     1  UNL1        0.1004
@<TRIPOS>BOND
     1    23    24    3
     2    24    17    1
     3    17    18   ar
     4    18    19   ar
     5    19    20   ar
     6    20     1    1
     7     1     2    2
     8     2     3    1
     9     3     4    1
    10     4     5    1
    11     5     6    1
    12     6     7    1
    13     7     8    1
    14     3     9    1
    15     9    10    1
    16    10    11   ar
    17    11    12   ar
    18    12    13   ar
    19    13    14   ar
    20    14    15   ar
    21    20    21   ar
    22    21    22   ar
    23    22    17   ar
    24    15     1    1
    25     8     3    1
    26    15    10   ar
    27     6    16    1
@<TRIPOS>MOLECULE
*****
 24 27 0 0 0
SMALL
GASTEIGER

@<TRIPOS>ATOM
      1 C         142.2682  141.3015  165.0241 C.2     1  UNL1        0.0020
      2 C         141.9957  139.9887  164.3515 C.2     1  UNL1        0.0130
      3 C         142.3576  139.7958  162.9086 C.3     1  UNL1        0.1542
      4 C         141.7234  138.6759  163.6789 C.3     1  UNL1        0.0614
      5 C         141.4510  137.3631  163.0063 C.3     1  UNL1        0.0725
      6 N         141.8128  137.1703  161.5635 N.3     1  UNL1       -0.2972
      7 C         142.4471  138.2903  160.7932 C.3     1  UNL1        0.0725
      8 C         142.7195  139.6030  161.4658 C.3     1  UNL1        0.0614
      9 O         142.9919  140.9159  162.1384 O.3     1  UNL1       -0.4785
     10 C         143.2643  142.2286  162.8109 C.ar    1  UNL1        0.1386
     11 C         143.8986  143.3487  162.0407 C.ar    1  UNL1        0.0369
     12 C         144.1710  144.6614  162.7132 C.ar    1  UNL1        0.0031
     13 C         143.8091  144.8543  164.1561 C.ar    1  UNL1        0.0002
     14 C         143.1748  143.7343  164.9264 C.ar    1  UNL1        0.0030
     15 C         142.9024  142.4215  164.2538 C.ar    1  UNL1        0.0338
     16 H         140.9517  136.9269  161.0739 H       1  UNL1        0.1233
     17 C         141.1825  141.8799  169.3527 C.ar    1  UNL1        0.0684
     18 C         140.3386  142.4996  168.2786 C.ar    1  UNL1        0.0103
     19 C         140.7005  142.3068  166.8357 C.ar    1  UNL1        0.0007
     20 C         141.9063  141.4943  166.4670 C.ar    1  UNL1       -0.0001
     21 C         142.7503  140.8746  167.5411 C.ar    1  UNL1        0.0007
     22 C         142.3884  141.0674  168.9840 C.ar    1  UNL1        0.0103
     23 N         140.4588  142.2656  172.2384 N.1     1  UNL1       -0.1908
     24 C         140.8207  142.0728  170.7956 C.1     1  UNL1        0.1004
@<TRIPOS>BOND
     1    23    24    3
     2    24    17    1
     3    17    18   ar
     4    18    19   ar
     5    19    20   ar
     6    20     1    1
     7     1     2    2
     8     2     3    1
     9     3     4    1
    10     4     5    1
    11     5     6    1
    12     6     7    1
    13     7     8    1
    14     3     9    1
    15     9    10    1
    16    10    11   ar
    17    11    12   ar
    18    12    13   ar
    19    13    14   ar
    20    14    15   ar
    21    20    21   ar
    22    21    22   ar
    23    22    17   ar
    24    15     1    1
    25     8     3    1
    26    15    10   ar
    27     6    16    1
@<TRIPOS>MOLECULE
*****
 24 27 0 0 0
SMALL
GASTEIGER

@<TRIPOS>ATOM
      1 C         140.9034  141.1746  164.7671 C.2     1  UNL1        0.0020
      2 C         142.0204  140.3619  164.1823 C.2     1  UNL1        0.0130
      3 C         142.1103  140.1696  162.6974 C.3     1  UNL1        0.1542
      4 C         143.1374  139.5493  163.5976 C.3     1  UNL1        0.0614
      5 C         144.2544  138.7368  163.0128 C.3     1  UNL1        0.0725
      6 N         144.3443  138.5444  161.5279 N.3     1  UNL1       -0.2972
      7 C         143.3172  139.1646  160.6278 C.3     1  UNL1        0.0725
      8 C         142.2002  139.9772  161.2125 C.3     1  UNL1        0.0614
      9 O         141.0831  140.7899  161.7973 O.3     1  UNL1       -0.4785
     10 C         139.9661  141.6024  162.3820 C.ar    1  UNL1        0.1386
     11 C         138.9390  142.2227  161.4819 C.ar    1  UNL1        0.0369
     12 C         137.8220  143.0353  162.0666 C.ar    1  UNL1        0.0031
     13 C         137.7321  143.2277  163.5515 C.ar    1  UNL1        0.0002
     14 C         138.7592  142.6074  164.4517 C.ar    1  UNL1        0.0030
     15 C         139.8763  141.7948  163.8669 C.ar    1  UNL1        0.0338
     16 H         144.3152  137.5389  161.3590 H       1  UNL1        0.1233
     17 C         140.6337  141.7516  169.2218 C.ar    1  UNL1        0.0684
     18 C         139.8774  140.6364  168.5628 C.ar    1  UNL1        0.0103
     19 C         139.9673  140.4440  167.0779 C.ar    1  UNL1        0.0007
     20 C         140.8135  141.3669  166.2520 C.ar    1  UNL1       -0.0001
     21 C         141.5698  142.4822  166.9109 C.ar    1  UNL1        0.0007
     22 C         141.4799  142.6746  168.3958 C.ar    1  UNL1        0.0103
     23 N         140.4539  142.1363  172.1916 N.1     1  UNL1       -0.1908
     24 C         140.5438  141.9439  170.7067 C.1     1  UNL1        0.1004
@<TRIPOS>BOND
     1    23    24    3
     2    24    17    1
     3    17    18   ar
     4    18    19   ar
     5    19    20   ar
     6    20     1    1
     7     1     2    2
     8     2     3    1
     9     3     4    1
    10     4     5    1
    11     5     6    1
    12     6     7    1
    13     7     8    1
    14     3     9    1
    15     9    10    1
    16    10    11   ar
    17    11    12   ar
    18    12    13   ar
    19    13    14   ar
    20    14    15   ar
    21    20    21   ar
    22    21    22   ar
    23    22    17   ar
    24    15     1    1
    25     8     3    1
    26    15    10   ar
    27     6    16    1
@<TRIPOS>MOLECULE
*****
 24 27 0 0 0
SMALL
GASTEIGER

@<TRIPOS>ATOM
      1 C         141.5067  140.3209  166.2686 C.2     1  UNL1        0.0020
      2 C         142.2863  141.0766  167.3036 C.2     1  UNL1        0.0130
      3 C         141.7316  141.2425  168.6874 C.3     1  UNL1        0.1542
      4 C         143.0659  141.8323  168.3386 C.3     1  UNL1        0.0614
      5 C         143.8454  142.5880  169.3736 C.3     1  UNL1        0.0725
      6 N         143.2907  142.7538  170.7573 N.3     1  UNL1       -0.2972
      7 C         141.9564  142.1640  171.1061 C.3     1  UNL1        0.0725
      8 C         141.1768  141.4083  170.0711 C.3     1  UNL1        0.0614
      9 O         140.3972  140.6526  169.0361 O.3     1  UNL1       -0.4785
     10 C         139.6177  139.8969  168.0011 C.ar    1  UNL1        0.1386
     11 C         138.2833  139.3070  168.3499 C.ar    1  UNL1        0.0369
     12 C         137.5037  138.5513  167.3149 C.ar    1  UNL1        0.0031
     13 C         138.0585  138.3855  165.9312 C.ar    1  UNL1        0.0002
     14 C         139.3928  138.9753  165.5824 C.ar    1  UNL1        0.0030
     15 C         140.1724  139.7311  166.6174 C.ar    1  UNL1        0.0338
     16 H         143.2232  143.7570  170.9292 H       1  UNL1        0.1233
     17 C         143.1710  139.8234  162.1174 C.ar    1  UNL1        0.0684
     18 C         143.4716  138.8015  163.1734 C.ar    1  UNL1        0.0103
     19 C         142.9168  138.9673  164.5571 C.ar    1  UNL1        0.0007
     20 C         142.0615  140.1551  164.8849 C.ar    1  UNL1       -0.0001
     21 C         141.7608  141.1771  163.8288 C.ar    1  UNL1        0.0007
     22 C         142.3155  141.0113  162.4451 C.ar    1  UNL1        0.0103
     23 N         144.2805  139.4917  159.3499 N.1     1  UNL1       -0.1908
     24 C         143.7257  139.6576  160.7336 C.1     1  UNL1        0.1004
@<TRIPOS>BOND
     1    23    24    3
     2    24    17    1
     3    17    18   ar
     4    18    19   ar
     5    19    20   ar
     6    20     1    1
     7     1     2    2
     8     2     3    1
     9     3     4    1
    10     4     5    1
    11     5     6    1
    12     6     7    1
    13     7     8    1
    14     3     9    1
    15     9    10    1
    16    10    11   ar
    17    11    12   ar
    18    12    13   ar
    19    13    14   ar
    20    14    15   ar
    21    20    21   ar
    22    21    22   ar
    23    22    17   ar
    24    15     1    1
    25     8     3    1
    26    15    10   ar
    27     6    16    1
@<TRIPOS>MOLECULE
*****
 24 27 0 0 0
SMALL
GASTEIGER

@<TRIPOS>ATOM
      1 C         141.2647  141.6762  164.6301 C.2     1  UNL1        0.0020
      2 C         142.6231  141.8604  164.0211 C.2     1  UNL1        0.0130
      3 C         142.7670  141.9890  162.5336 C.3     1  UNL1        0.1542
      4 C         143.9815  142.0446  163.4121 C.3     1  UNL1        0.0614
      5 C         145.3399  142.2289  162.8032 C.3     1  UNL1        0.0725
      6 N         145.4838  142.3574  161.3156 N.3     1  UNL1       -0.2972
      7 C         144.2693  142.3017  160.4371 C.3     1  UNL1        0.0725
      8 C         142.9109  142.1175  161.0460 C.3     1  UNL1        0.0614
      9 O         141.5525  141.9333  161.6550 O.3     1  UNL1       -0.4785
     10 C         140.1941  141.7491  162.2640 C.ar    1  UNL1        0.1386
     11 C         138.9796  141.6934  161.3854 C.ar    1  UNL1        0.0369
     12 C         137.6212  141.5092  161.9943 C.ar    1  UNL1        0.0031
     13 C         137.4773  141.3807  163.4819 C.ar    1  UNL1        0.0002
     14 C         138.6918  141.4364  164.3604 C.ar    1  UNL1        0.0030
     15 C         140.0502  141.6206  163.7515 C.ar    1  UNL1        0.0338
     16 H         146.1007  141.6035  161.0133 H       1  UNL1        0.1233
     17 C         140.8330  141.2906  169.0927 C.ar    1  UNL1        0.0684
     18 C         141.1776  140.0875  168.2658 C.ar    1  UNL1        0.0103
     19 C         141.3215  140.2161  166.7782 C.ar    1  UNL1        0.0007
     20 C         141.1208  141.5477  166.1176 C.ar    1  UNL1       -0.0001
     21 C         140.7762  142.7508  166.9445 C.ar    1  UNL1        0.0007
     22 C         140.6323  142.6223  168.4321 C.ar    1  UNL1        0.0103
     23 N         140.5452  141.0335  172.0678 N.1     1  UNL1       -0.1908
     24 C         140.6891  141.1620  170.5802 C.1     1  UNL1        0.1004
@<TRIPOS>BOND
     1    23    24    3
     2    24    17    1
     3    17    18   ar
     4    18    19   ar
     5    19    20   ar
     6    20     1    1
     7     1     2    2
     8     2     3    1
     9     3     4    1
    10     4     5    1
    11     5     6    1
    12     6     7    1
    13     7     8    1
    14     3     9    1
    15     9    10    1
    16    10    11   ar
    17    11    12   ar
    18    12    13   ar
    19    13    14   ar
    20    14    15   ar
    21    20    21   ar
    22    21    22   ar
    23    22    17   ar
    24    15     1    1
    25     8     3    1
    26    15    10   ar
    27     6    16    1
@<TRIPOS>MOLECULE
*****
 24 27 0 0 0
SMALL
GASTEIGER

@<TRIPOS>ATOM
      1 C         140.6367  141.9538  164.1620 C.2     1  UNL1        0.0020
      2 C         140.2731  140.5730  163.7021 C.2     1  UNL1        0.0130
      3 C         139.8563  140.3416  162.2799 C.3     1  UNL1        0.1542
      4 C         139.9096  139.1923  163.2423 C.3     1  UNL1        0.0614
      5 C         139.5460  137.8116  162.7825 C.3     1  UNL1        0.0725
      6 N         139.1292  137.5802  161.3603 N.3     1  UNL1       -0.2972
      7 C         139.0759  138.7295  160.3979 C.3     1  UNL1        0.0725
      8 C         139.4395  140.1102  160.8577 C.3     1  UNL1        0.0614
      9 O         139.8030  141.4910  161.3175 O.3     1  UNL1       -0.4785
     10 C         140.1666  142.8717  161.7773 C.ar    1  UNL1        0.1386
     11 C         140.1133  144.0211  160.8149 C.ar    1  UNL1        0.0369
     12 C         140.4769  145.4017  161.2748 C.ar    1  UNL1        0.0031
     13 C         140.8937  145.6331  162.6970 C.ar    1  UNL1        0.0002
     14 C         140.9470  144.4838  163.6594 C.ar    1  UNL1        0.0030
     15 C         140.5834  143.1031  163.1996 C.ar    1  UNL1        0.0338
     16 H         138.1926  137.1772  161.3898 H       1  UNL1        0.1233
     17 C         141.8872  142.6479  168.4286 C.ar    1  UNL1        0.0684
     18 C         142.8993  142.2087  167.4124 C.ar    1  UNL1        0.0103
     19 C         142.4824  141.9773  165.9902 C.ar    1  UNL1        0.0007
     20 C         141.0535  142.1851  165.5842 C.ar    1  UNL1       -0.0001
     21 C         140.0413  142.6245  166.6004 C.ar    1  UNL1        0.0007
     22 C         140.4582  142.8558  168.0226 C.ar    1  UNL1        0.0103
     23 N         142.7208  143.1107  171.2731 N.1     1  UNL1       -0.1908
     24 C         142.3040  142.8793  169.8508 C.1     1  UNL1        0.1004
@<TRIPOS>BOND
     1    23    24    3
     2    24    17    1
     3    17    18   ar
     4    18    19   ar
     5    19    20   ar
     6    20     1    1
     7     1     2    2
     8     2     3    1
     9     3     4    1
    10     4     5    1
    11     5     6    1
    12     6     7    1
    13     7     8    1
    14     3     9    1
    15     9    10    1
    16    10    11   ar
    17    11    12   ar
    18    12    13   ar
    19    13    14   ar
    20    14    15   ar
    21    20    21   ar
    22    21    22   ar
    23    22    17   ar
    24    15     1    1
    25     8     3    1
    26    15    10   ar
    27     6    16    1
