@<TRIPOS>MOLECULE
*****
 42 48 0 0 0
SMALL
GASTEIGER

@<TRIPOS>ATOM
      1 C         142.7847  139.0668  158.8032 C.3     1  UNL1        0.1354
      2 N         142.2293  137.8311  158.1594 N.3     1  UNL1       -0.2823
      3 C         142.6642  137.4457  156.7766 C.3     1  UNL1        0.1166
      4 C         143.6546  138.2959  156.0375 C.3     1  UNL1        0.0511
      5 C         144.2101  139.5316  156.6813 C.2     1  UNL1       -0.0038
      6 C         143.7752  139.9171  158.0641 C.2     1  UNL1        0.0768
      7 N         144.4896  141.1816  158.4391 N.2     1  UNL1       -0.2520
      8 C         145.3661  141.5776  157.2880 C.2     1  UNL1        0.0627
      9 C         146.2992  142.7350  157.0888 C.3     1  UNL1        0.0717
     10 C         147.0595  142.8727  155.8031 C.2     1  UNL1       -0.0198
     11 C         146.8867  141.8529  154.7167 C.2     1  UNL1       -0.0042
     12 C         145.9536  140.6955  154.9160 C.2     1  UNL1        0.0006
     13 C         145.1933  140.5579  156.2016 C.2     1  UNL1        0.0111
     14 H         141.2161  137.9453  158.1284 H       1  UNL1        0.1245
     15 C         138.4747  138.1465  161.7113 C.3     1  UNL1        0.1537
     16 N         139.8968  138.1650  161.2346 N.ar    1  UNL1       -0.2476
     17 C         140.3973  138.8144  159.9784 C.ar    1  UNL1        0.0944
     18 C         141.8779  138.5880  159.8979 C.ar    1  UNL1        0.0407
     19 C         142.2925  137.7988  161.1043 C.ar    1  UNL1        0.1193
     20 N         141.0681  137.5374  161.9304 N.ar    1  UNL1       -0.1679
     21 C         143.0253  140.1363  159.8272 C.ar    1  UNL1        0.0810
     22 C         142.1564  141.3587  159.8532 C.ar    1  UNL1        0.0168
     23 C         142.3969  142.4282  160.8771 C.ar    1  UNL1        0.0040
     24 C         143.5064  142.2752  161.8749 C.ar    1  UNL1        0.0331
     25 C         144.3753  141.0529  161.8489 C.ar    1  UNL1        0.0996
     26 N         144.1348  139.9834  160.8249 N.ar    1  UNL1       -0.2461
     27 C         143.7470  143.3447  162.8988 C.2     1  UNL1        0.0744
     28 O         143.4678  143.0727  164.3472 O.co2   1  UNL1       -0.5445
     29 O         144.2668  144.6862  162.4742 O.co2   1  UNL1       -0.5445
     30 C         142.1087  136.2099  156.1327 C.ar    1  UNL1        0.1318
     31 N         142.4994  134.7975  156.4526 N.ar    1  UNL1       -0.2298
     32 C         141.6972  133.8843  155.5736 C.ar    1  UNL1        0.0996
     33 C         140.8107  134.7324  154.7106 C.ar    1  UNL1        0.0927
     34 N         141.0650  136.1697  155.0561 N.ar    1  UNL1       -0.3386
     35 H         140.6244  136.9498  154.6480 H       1  UNL1        0.1672
     36 C         141.7689  132.3861  155.5601 C.ar    1  UNL1        0.0193
     37 C         140.8004  131.5963  154.7304 C.ar    1  UNL1        0.0039
     38 C         140.8721  130.0981  154.7169 C.ar    1  UNL1        0.0297
     39 C         141.9122  129.3897  155.5330 C.ar    1  UNL1        0.1401
     40 F         141.9839  127.8914  155.5195 F       1  UNL1       -0.2042
     41 C         142.8807  130.1794  156.3627 C.ar    1  UNL1        0.0297
     42 C         142.8090  131.6776  156.3762 C.ar    1  UNL1        0.0039
@<TRIPOS>UNITY_ATOM_ATTR
28 1
charge -1
@<TRIPOS>BOND
     1    15    16    1
     2    16    17   ar
     3    17    18   ar
     4     1    18    1
     5     1    21    1
     6    21    22   ar
     7    22    23   ar
     8    23    24   ar
     9    24    27    1
    10    27    28   ar
    11    27    29   ar
    12    24    25   ar
    13    25    26   ar
    14     1     2    1
    15     2     3    1
    16     3    30    1
    17    30    31   ar
    18    31    32   ar
    19    32    36    1
    20    36    37   ar
    21    37    38   ar
    22    38    39   ar
    23    39    40    1
    24    39    41   ar
    25    41    42   ar
    26    32    33   ar
    27    33    34   ar
    28     3     4    1
    29     4     5    1
    30     5     6    2
    31     6     7    1
    32     7     8    2
    33     8     9    1
    34     9    10    1
    35    10    11    2
    36    11    12    1
    37    12    13    2
    38    18    19   ar
    39    19    20   ar
    40    20    16   ar
    41     6     1    1
    42    13     8    1
    43    26    21   ar
    44    34    30   ar
    45    13     5    1
    46    42    36   ar
    47     2    14    1
    48    34    35    1
@<TRIPOS>MOLECULE
*****
 42 48 0 0 0
SMALL
GASTEIGER

@<TRIPOS>ATOM
      1 C         141.2604  140.2352  159.7917 C.3     1  UNL1        0.1354
      2 N         141.7765  138.9909  159.1319 N.3     1  UNL1       -0.2823
      3 C         142.4098  139.0693  157.7744 C.3     1  UNL1        0.1166
      4 C         142.5269  140.3920  157.0767 C.3     1  UNL1        0.0511
      5 C         142.0108  141.6363  157.7365 C.2     1  UNL1       -0.0038
      6 C         141.3775  141.5578  159.0940 C.2     1  UNL1        0.0768
      7 N         140.9628  142.9431  159.4926 N.2     1  UNL1       -0.2520
      8 C         141.3398  143.8777  158.3815 C.2     1  UNL1        0.0627
      9 C         141.1769  145.3598  158.2179 C.3     1  UNL1        0.0717
     10 C         141.6617  146.0342  156.9689 C.2     1  UNL1       -0.0198
     11 C         142.3095  145.2264  155.8835 C.2     1  UNL1       -0.0042
     12 C         142.4723  143.7443  156.0471 C.2     1  UNL1        0.0006
     13 C         141.9875  143.0700  157.2961 C.2     1  UNL1        0.0111
     14 H         140.9864  138.3507  159.0517 H       1  UNL1        0.1245
     15 C         141.4904  137.2389  164.1334 C.3     1  UNL1        0.1537
     16 N         141.0290  137.8453  162.8413 N.ar    1  UNL1       -0.2476
     17 C         141.7356  138.9204  162.0699 C.ar    1  UNL1        0.0944
     18 C         140.9233  139.2225  160.8456 C.ar    1  UNL1        0.0407
     19 C         139.7147  138.3342  160.8604 C.ar    1  UNL1        0.1193
     20 N         139.7800  137.4830  162.0938 N.ar    1  UNL1       -0.1679
     21 C         140.6272  141.1278  160.8175 C.ar    1  UNL1        0.0810
     22 C         139.1438  141.3502  160.8049 C.ar    1  UNL1        0.0168
     23 C         138.5105  142.2429  161.8307 C.ar    1  UNL1        0.0040
     24 C         139.3607  142.9131  162.8690 C.ar    1  UNL1        0.0331
     25 C         140.8441  142.6907  162.8816 C.ar    1  UNL1        0.0996
     26 N         141.4773  141.7980  161.8557 N.ar    1  UNL1       -0.2461
     27 C         138.7275  143.8058  163.8948 C.2     1  UNL1        0.0744
     28 O         137.4923  143.3582  164.6185 O.co2   1  UNL1       -0.5445
     29 O         139.3297  145.1460  164.1968 O.co2   1  UNL1       -0.5445
     30 C         142.9259  137.8249  157.1146 C.ar    1  UNL1        0.1318
     31 N         142.5475  136.4174  157.4688 N.ar    1  UNL1       -0.2298
     32 C         143.2987  135.4922  156.5578 C.ar    1  UNL1        0.0996
     33 C         144.1414  136.3281  155.6407 C.ar    1  UNL1        0.0927
     34 N         143.9110  137.7698  155.9848 N.ar    1  UNL1       -0.3386
     35 H         144.3324  138.5439  155.5461 H       1  UNL1        0.1672
     36 C         143.2209  133.9942  156.5632 C.ar    1  UNL1        0.0193
     37 C         142.1385  133.2967  155.7938 C.ar    1  UNL1        0.0039
     38 C         142.0607  131.7988  155.7991 C.ar    1  UNL1        0.0297
     39 C         143.0652  130.9983  156.5738 C.ar    1  UNL1        0.1401
     40 F         142.9874  129.5003  156.5791 F       1  UNL1       -0.2042
     41 C         144.1476  131.6958  157.3431 C.ar    1  UNL1        0.0297
     42 C         144.2255  133.1938  157.3378 C.ar    1  UNL1        0.0039
@<TRIPOS>UNITY_ATOM_ATTR
28 1
charge -1
@<TRIPOS>BOND
     1    15    16    1
     2    16    17   ar
     3    17    18   ar
     4     1    18    1
     5     1    21    1
     6    21    22   ar
     7    22    23   ar
     8    23    24   ar
     9    24    27    1
    10    27    28   ar
    11    27    29   ar
    12    24    25   ar
    13    25    26   ar
    14     1     2    1
    15     2     3    1
    16     3    30    1
    17    30    31   ar
    18    31    32   ar
    19    32    36    1
    20    36    37   ar
    21    37    38   ar
    22    38    39   ar
    23    39    40    1
    24    39    41   ar
    25    41    42   ar
    26    32    33   ar
    27    33    34   ar
    28     3     4    1
    29     4     5    1
    30     5     6    2
    31     6     7    1
    32     7     8    2
    33     8     9    1
    34     9    10    1
    35    10    11    2
    36    11    12    1
    37    12    13    2
    38    18    19   ar
    39    19    20   ar
    40    20    16   ar
    41     6     1    1
    42    13     8    1
    43    26    21   ar
    44    34    30   ar
    45    13     5    1
    46    42    36   ar
    47     2    14    1
    48    34    35    1
@<TRIPOS>MOLECULE
*****
 42 48 0 0 0
SMALL
GASTEIGER

@<TRIPOS>ATOM
      1 C         142.6331  139.8403  160.1183 C.3     1  UNL1        0.1354
      2 N         142.6606  140.4545  161.4865 N.3     1  UNL1       -0.2823
      3 C         143.6149  141.5718  161.7879 C.3     1  UNL1        0.1166
      4 C         144.5416  142.0750  160.7212 C.3     1  UNL1        0.0511
      5 C         144.5141  141.4608  159.3530 C.2     1  UNL1       -0.0038
      6 C         143.5598  140.3434  159.0516 C.2     1  UNL1        0.0768
      7 N         143.7587  139.9372  157.6214 N.2     1  UNL1       -0.2520
      8 C         144.8359  140.8035  157.0389 C.2     1  UNL1        0.0627
      9 C         145.4519  140.8565  155.6723 C.3     1  UNL1        0.0717
     10 C         146.5348  141.8511  155.3759 C.2     1  UNL1       -0.0198
     11 C         147.0017  142.7928  156.4461 C.2     1  UNL1       -0.0042
     12 C         146.3857  142.7398  157.8127 C.2     1  UNL1        0.0006
     13 C         145.3028  141.7451  158.1091 C.2     1  UNL1        0.0111
     14 H         142.8710  139.7025  162.1427 H       1  UNL1        0.1245
     15 C         137.9248  138.1039  161.7610 C.3     1  UNL1        0.1537
     16 N         139.4042  138.2274  161.5461 N.ar    1  UNL1       -0.2476
     17 C         140.0919  139.2840  160.7331 C.ar    1  UNL1        0.0944
     18 C         141.5684  139.0256  160.7910 C.ar    1  UNL1        0.0407
     19 C         141.7932  137.8094  161.6398 C.ar    1  UNL1        0.1193
     20 N         140.4556  137.3161  162.1065 N.ar    1  UNL1       -0.1679
     21 C         142.2358  138.9431  158.9837 C.ar    1  UNL1        0.0810
     22 C         141.0899  139.3228  158.0933 C.ar    1  UNL1        0.0168
     23 C         140.6925  138.4257  156.9587 C.ar    1  UNL1        0.0040
     24 C         141.4411  137.1490  156.7145 C.ar    1  UNL1        0.0331
     25 C         142.5870  136.7693  157.6049 C.ar    1  UNL1        0.0996
     26 N         142.9843  137.6665  158.7395 N.ar    1  UNL1       -0.2461
     27 C         141.0438  136.2519  155.5799 C.2     1  UNL1        0.0744
     28 O         141.4675  134.8130  155.5777 O.co2   1  UNL1       -0.5445
     29 O         140.2229  136.7937  154.4474 O.co2   1  UNL1       -0.5445
     30 C         143.6425  142.1861  163.1562 C.ar    1  UNL1        0.1318
     31 N         142.8280  141.7463  164.3365 N.ar    1  UNL1       -0.2298
     32 C         143.1715  142.6364  165.4941 C.ar    1  UNL1        0.0996
     33 C         144.1982  143.6261  165.0291 C.ar    1  UNL1        0.0927
     34 N         144.4892  143.3479  163.5842 N.ar    1  UNL1       -0.3386
     35 H         145.1245  143.8411  163.0164 H       1  UNL1        0.1672
     36 C         142.5903  142.5514  166.8744 C.ar    1  UNL1        0.0193
     37 C         141.1023  142.5650  167.0637 C.ar    1  UNL1        0.0039
     38 C         140.5211  142.4801  168.4439 C.ar    1  UNL1        0.0297
     39 C         141.4278  142.3816  169.6347 C.ar    1  UNL1        0.1401
     40 F         140.8466  142.2967  171.0150 F       1  UNL1       -0.2042
     41 C         142.9157  142.3681  169.4454 C.ar    1  UNL1        0.0297
     42 C         143.4970  142.4530  168.0652 C.ar    1  UNL1        0.0039
@<TRIPOS>UNITY_ATOM_ATTR
28 1
charge -1
@<TRIPOS>BOND
     1    15    16    1
     2    16    17   ar
     3    17    18   ar
     4     1    18    1
     5     1    21    1
     6    21    22   ar
     7    22    23   ar
     8    23    24   ar
     9    24    27    1
    10    27    28   ar
    11    27    29   ar
    12    24    25   ar
    13    25    26   ar
    14     1     2    1
    15     2     3    1
    16     3    30    1
    17    30    31   ar
    18    31    32   ar
    19    32    36    1
    20    36    37   ar
    21    37    38   ar
    22    38    39   ar
    23    39    40    1
    24    39    41   ar
    25    41    42   ar
    26    32    33   ar
    27    33    34   ar
    28     3     4    1
    29     4     5    1
    30     5     6    2
    31     6     7    1
    32     7     8    2
    33     8     9    1
    34     9    10    1
    35    10    11    2
    36    11    12    1
    37    12    13    2
    38    18    19   ar
    39    19    20   ar
    40    20    16   ar
    41     6     1    1
    42    13     8    1
    43    26    21   ar
    44    34    30   ar
    45    13     5    1
    46    42    36   ar
    47     2    14    1
    48    34    35    1
@<TRIPOS>MOLECULE
*****
 42 48 0 0 0
SMALL
GASTEIGER

@<TRIPOS>ATOM
      1 C         140.5098  141.3306  160.1207 C.3     1  UNL1        0.1354
      2 N         140.8881  141.0431  161.5434 N.3     1  UNL1       -0.2823
      3 C         141.6777  139.8117  161.8753 C.3     1  UNL1        0.1166
      4 C         142.0890  138.8678  160.7845 C.3     1  UNL1        0.0511
      5 C         141.7107  139.1553  159.3617 C.2     1  UNL1       -0.0038
      6 C         140.9210  140.3867  159.0299 C.2     1  UNL1        0.0768
      7 N         140.6951  140.4067  157.5471 N.2     1  UNL1       -0.2520
      8 C         141.3451  139.1878  156.9626 C.2     1  UNL1        0.0627
      9 C         141.4465  138.6822  155.5541 C.3     1  UNL1        0.0717
     10 C         142.1756  137.4031  155.2671 C.2     1  UNL1       -0.0198
     11 C         142.8033  136.6297  156.3886 C.2     1  UNL1       -0.0042
     12 C         142.7019  137.1353  157.7971 C.2     1  UNL1        0.0006
     13 C         141.9728  138.4143  158.0841 C.2     1  UNL1        0.0111
     14 H         140.0186  140.9872  162.0738 H       1  UNL1        0.1245
     15 C         139.7485  146.2040  162.0051 C.3     1  UNL1        0.1537
     16 N         139.5427  144.7575  161.6654 N.ar    1  UNL1       -0.2476
     17 C         140.5004  143.8844  160.9101 C.ar    1  UNL1        0.0944
     18 C         139.8927  142.5175  160.7992 C.ar    1  UNL1        0.0407
     19 C         138.5594  142.5459  161.4860 C.ar    1  UNL1        0.1193
     20 N         138.3431  143.9304  162.0213 N.ar    1  UNL1       -0.1679
     21 C         139.9171  142.0303  158.9335 C.ar    1  UNL1        0.0810
     22 C         138.4945  141.7641  158.5394 C.ar    1  UNL1        0.0168
     23 C         137.9017  142.4638  157.3523 C.ar    1  UNL1        0.0040
     24 C         138.7317  143.4294  156.5594 C.ar    1  UNL1        0.0331
     25 C         140.1543  143.6955  156.9535 C.ar    1  UNL1        0.0996
     26 N         140.7469  142.9959  158.1406 N.ar    1  UNL1       -0.2461
     27 C         138.1390  144.1291  155.3722 C.2     1  UNL1        0.0744
     28 O         139.0357  144.7220  154.3263 O.co2   1  UNL1       -0.5445
     29 O         136.6494  144.2357  155.2311 O.co2   1  UNL1       -0.5445
     30 C         142.0561  139.5242  163.2981 C.ar    1  UNL1        0.1318
     31 N         141.2801  139.9300  164.5159 N.ar    1  UNL1       -0.2298
     32 C         142.0213  139.4370  165.7233 C.ar    1  UNL1        0.0996
     33 C         143.2553  138.7267  165.2516 C.ar    1  UNL1        0.0927
     34 N         143.2769  138.7805  163.7527 N.ar    1  UNL1       -0.3386
     35 H         143.9704  138.3954  163.1697 H       1  UNL1        0.1672
     36 C         141.6020  139.6220  167.1516 C.ar    1  UNL1        0.0193
     37 C         140.2117  140.0857  167.4711 C.ar    1  UNL1        0.0039
     38 C         139.7924  140.2707  168.8993 C.ar    1  UNL1        0.0297
     39 C         140.7633  139.9920  170.0081 C.ar    1  UNL1        0.1401
     40 F         140.3440  140.1770  171.4364 F       1  UNL1       -0.2042
     41 C         142.1536  139.5282  169.6887 C.ar    1  UNL1        0.0297
     42 C         142.5729  139.3432  168.2604 C.ar    1  UNL1        0.0039
@<TRIPOS>UNITY_ATOM_ATTR
28 1
charge -1
@<TRIPOS>BOND
     1    15    16    1
     2    16    17   ar
     3    17    18   ar
     4     1    18    1
     5     1    21    1
     6    21    22   ar
     7    22    23   ar
     8    23    24   ar
     9    24    27    1
    10    27    28   ar
    11    27    29   ar
    12    24    25   ar
    13    25    26   ar
    14     1     2    1
    15     2     3    1
    16     3    30    1
    17    30    31   ar
    18    31    32   ar
    19    32    36    1
    20    36    37   ar
    21    37    38   ar
    22    38    39   ar
    23    39    40    1
    24    39    41   ar
    25    41    42   ar
    26    32    33   ar
    27    33    34   ar
    28     3     4    1
    29     4     5    1
    30     5     6    2
    31     6     7    1
    32     7     8    2
    33     8     9    1
    34     9    10    1
    35    10    11    2
    36    11    12    1
    37    12    13    2
    38    18    19   ar
    39    19    20   ar
    40    20    16   ar
    41     6     1    1
    42    13     8    1
    43    26    21   ar
    44    34    30   ar
    45    13     5    1
    46    42    36   ar
    47     2    14    1
    48    34    35    1
@<TRIPOS>MOLECULE
*****
 42 48 0 0 0
SMALL
GASTEIGER

@<TRIPOS>ATOM
      1 C         141.8476  143.3372  159.7219 C.3     1  UNL1        0.1354
      2 N         142.1899  142.7684  161.0670 N.3     1  UNL1       -0.2823
      3 C         143.3348  141.8094  161.2065 C.3     1  UNL1        0.1166
      4 C         144.1374  141.4192  160.0009 C.3     1  UNL1        0.0511
      5 C         143.7952  141.9880  158.6558 C.2     1  UNL1       -0.0038
      6 C         142.6503  142.9470  158.5163 C.2     1  UNL1        0.0768
      7 N         142.5493  143.3414  157.0726 N.2     1  UNL1       -0.2520
      8 C         143.6318  142.6262  156.3198 C.2     1  UNL1        0.0627
      9 C         144.0158  142.6285  154.8699 C.3     1  UNL1        0.0717
     10 C         145.1699  141.7944  154.3984 C.2     1  UNL1       -0.0198
     11 C         145.9399  140.9579  155.3768 C.2     1  UNL1       -0.0042
     12 C         145.5559  140.9556  156.8268 C.2     1  UNL1        0.0006
     13 C         144.4018  141.7897  157.2983 C.2     1  UNL1        0.0111
     14 H         141.3573  142.2838  161.4023 H       1  UNL1        0.1245
     15 C         137.7404  144.1149  162.9479 C.3     1  UNL1        0.1537
     16 N         138.9119  144.3631  162.0445 N.ar    1  UNL1       -0.2476
     17 C         139.7383  143.3126  161.3637 C.ar    1  UNL1        0.0944
     18 C         140.7997  144.0056  160.5616 C.ar    1  UNL1        0.0407
     19 C         140.6292  145.4843  160.7467 C.ar    1  UNL1        0.1193
     20 N         139.4624  145.7053  161.6632 N.ar    1  UNL1       -0.1679
     21 C         141.1414  144.1382  158.6684 C.ar    1  UNL1        0.0810
     22 C         139.9077  143.5924  158.0128 C.ar    1  UNL1        0.0168
     23 C         139.2014  144.3932  156.9592 C.ar    1  UNL1        0.0040
     24 C         139.7291  145.7398  156.5614 C.ar    1  UNL1        0.0331
     25 C         140.9629  146.2856  157.2170 C.ar    1  UNL1        0.0996
     26 N         141.6690  145.4847  158.2706 N.ar    1  UNL1       -0.2461
     27 C         139.0229  146.5408  155.5079 C.2     1  UNL1        0.0744
     28 O         139.5718  147.8703  155.0828 O.co2   1  UNL1       -0.5445
     29 O         137.7677  146.0120  154.8794 O.co2   1  UNL1       -0.5445
     30 C         143.6771  141.2405  162.5516 C.ar    1  UNL1        0.1318
     31 N         142.9666  141.5340  163.8396 N.ar    1  UNL1       -0.2298
     32 C         143.6403  140.7532  164.9289 C.ar    1  UNL1        0.0996
     33 C         144.7672  139.9773  164.3141 C.ar    1  UNL1        0.0927
     34 N         144.7899  140.2785  162.8448 N.ar    1  UNL1       -0.3386
     35 H         145.4239  139.9095  162.1882 H       1  UNL1        0.1672
     36 C         143.2548  140.7491  166.3786 C.ar    1  UNL1        0.0193
     37 C         142.8862  139.4610  167.0530 C.ar    1  UNL1        0.0039
     38 C         142.5007  139.4568  168.5026 C.ar    1  UNL1        0.0297
     39 C         142.4838  140.7408  169.2777 C.ar    1  UNL1        0.1401
     40 F         142.0982  140.7368  170.7274 F       1  UNL1       -0.2042
     41 C         142.8523  142.0290  168.6033 C.ar    1  UNL1        0.0297
     42 C         143.2378  142.0331  167.1538 C.ar    1  UNL1        0.0039
@<TRIPOS>UNITY_ATOM_ATTR
28 1
charge -1
@<TRIPOS>BOND
     1    15    16    1
     2    16    17   ar
     3    17    18   ar
     4     1    18    1
     5     1    21    1
     6    21    22   ar
     7    22    23   ar
     8    23    24   ar
     9    24    27    1
    10    27    28   ar
    11    27    29   ar
    12    24    25   ar
    13    25    26   ar
    14     1     2    1
    15     2     3    1
    16     3    30    1
    17    30    31   ar
    18    31    32   ar
    19    32    36    1
    20    36    37   ar
    21    37    38   ar
    22    38    39   ar
    23    39    40    1
    24    39    41   ar
    25    41    42   ar
    26    32    33   ar
    27    33    34   ar
    28     3     4    1
    29     4     5    1
    30     5     6    2
    31     6     7    1
    32     7     8    2
    33     8     9    1
    34     9    10    1
    35    10    11    2
    36    11    12    1
    37    12    13    2
    38    18    19   ar
    39    19    20   ar
    40    20    16   ar
    41     6     1    1
    42    13     8    1
    43    26    21   ar
    44    34    30   ar
    45    13     5    1
    46    42    36   ar
    47     2    14    1
    48    34    35    1
@<TRIPOS>MOLECULE
*****
 42 48 0 0 0
SMALL
GASTEIGER

@<TRIPOS>ATOM
      1 C         141.9220  140.5642  159.1235 C.3     1  UNL1        0.1354
      2 N         142.4188  139.6100  158.0783 N.3     1  UNL1       -0.2823
      3 C         142.5919  138.1575  158.4104 C.3     1  UNL1        0.1166
      4 C         142.2681  137.6593  159.7877 C.3     1  UNL1        0.0511
      5 C         141.7713  138.6135  160.8329 C.2     1  UNL1       -0.0038
      6 C         141.5982  140.0660  160.5008 C.2     1  UNL1        0.0768
      7 N         141.0942  140.7653  161.7284 N.2     1  UNL1       -0.2520
      8 C         140.9557  139.7449  162.8192 C.2     1  UNL1        0.0627
      9 C         140.5027  139.8550  164.2448 C.3     1  UNL1        0.0717
     10 C         140.4681  138.6352  165.1171 C.2     1  UNL1       -0.0198
     11 C         140.8866  137.3053  164.5636 C.2     1  UNL1       -0.0042
     12 C         141.3397  137.1953  163.1379 C.2     1  UNL1        0.0006
     13 C         141.3742  138.4151  162.2657 C.2     1  UNL1        0.0111
     14 H         143.3302  139.9534  157.7754 H       1  UNL1        0.1245
     15 C         140.8941  143.6553  154.9678 C.3     1  UNL1        0.1537
     16 N         141.6215  142.9285  156.0599 N.ar    1  UNL1       -0.2476
     17 C         141.0023  142.0120  157.0733 C.ar    1  UNL1        0.0944
     18 C         142.0939  141.5077  157.9701 C.ar    1  UNL1        0.0407
     19 C         143.3875  142.1124  157.5109 C.ar    1  UNL1        0.1193
     20 N         143.0955  142.9905  156.3304 N.ar    1  UNL1       -0.1679
     21 C         141.4848  141.8462  159.7682 C.ar    1  UNL1        0.0810
     22 C         142.5030  142.7662  160.3739 C.ar    1  UNL1        0.0168
     23 C         142.0659  144.0481  161.0187 C.ar    1  UNL1        0.0040
     24 C         140.6107  144.4099  161.0576 C.ar    1  UNL1        0.0331
     25 C         139.5926  143.4900  160.4518 C.ar    1  UNL1        0.0996
     26 N         140.0297  142.2080  159.8071 N.ar    1  UNL1       -0.2461
     27 C         140.1736  145.6919  161.7023 C.2     1  UNL1        0.0744
     28 O         139.1418  146.5528  161.0360 O.co2   1  UNL1       -0.5445
     29 O         140.7684  146.1129  163.0135 O.co2   1  UNL1       -0.5445
     30 C         143.0887  137.2031  157.3651 C.ar    1  UNL1        0.1318
     31 N         142.9695  135.7085  157.4079 N.ar    1  UNL1       -0.2298
     32 C         143.5991  135.1575  156.1629 C.ar    1  UNL1        0.0996
     33 C         144.1074  136.3116  155.3507 C.ar    1  UNL1        0.0927
     34 N         143.7920  137.5759  156.0937 N.ar    1  UNL1       -0.3386
     35 H         144.0085  138.4898  155.7988 H       1  UNL1        0.1672
     36 C         143.7022  133.7070  155.7947 C.ar    1  UNL1        0.0193
     37 C         144.5550  132.7841  156.6139 C.ar    1  UNL1        0.0039
     38 C         144.6582  131.3337  156.2458 C.ar    1  UNL1        0.0297
     39 C         143.9085  130.8061  155.0585 C.ar    1  UNL1        0.1401
     40 F         144.0117  129.3556  154.6903 F       1  UNL1       -0.2042
     41 C         143.0557  131.7290  154.2393 C.ar    1  UNL1        0.0297
     42 C         142.9526  133.1794  154.6074 C.ar    1  UNL1        0.0039
@<TRIPOS>UNITY_ATOM_ATTR
28 1
charge -1
@<TRIPOS>BOND
     1    15    16    1
     2    16    17   ar
     3    17    18   ar
     4     1    18    1
     5     1    21    1
     6    21    22   ar
     7    22    23   ar
     8    23    24   ar
     9    24    27    1
    10    27    28   ar
    11    27    29   ar
    12    24    25   ar
    13    25    26   ar
    14     1     2    1
    15     2     3    1
    16     3    30    1
    17    30    31   ar
    18    31    32   ar
    19    32    36    1
    20    36    37   ar
    21    37    38   ar
    22    38    39   ar
    23    39    40    1
    24    39    41   ar
    25    41    42   ar
    26    32    33   ar
    27    33    34   ar
    28     3     4    1
    29     4     5    1
    30     5     6    2
    31     6     7    1
    32     7     8    2
    33     8     9    1
    34     9    10    1
    35    10    11    2
    36    11    12    1
    37    12    13    2
    38    18    19   ar
    39    19    20   ar
    40    20    16   ar
    41     6     1    1
    42    13     8    1
    43    26    21   ar
    44    34    30   ar
    45    13     5    1
    46    42    36   ar
    47     2    14    1
    48    34    35    1
@<TRIPOS>MOLECULE
*****
 42 48 0 0 0
SMALL
GASTEIGER

@<TRIPOS>ATOM
      1 C         140.2995  141.5805  158.9049 C.3     1  UNL1        0.1354
      2 N         138.9241  141.4812  158.3148 N.3     1  UNL1       -0.2823
      3 C         138.7495  141.0570  156.8867 C.3     1  UNL1        0.1166
      4 C         139.9504  140.7320  156.0486 C.3     1  UNL1        0.0511
      5 C         141.3259  140.8313  156.6387 C.2     1  UNL1       -0.0038
      6 C         141.5004  141.2555  158.0669 C.2     1  UNL1        0.0768
      7 N         142.9690  141.2626  158.3720 N.2     1  UNL1       -0.2520
      8 C         143.7021  140.8429  157.1325 C.2     1  UNL1        0.0627
      9 C         145.1632  140.6689  156.8409 C.3     1  UNL1        0.0717
     10 C         145.6086  140.2284  155.4780 C.2     1  UNL1       -0.0198
     11 C         144.5931  139.9618  154.4068 C.2     1  UNL1       -0.0042
     12 C         143.1320  140.1357  154.6984 C.2     1  UNL1        0.0006
     13 C         142.6866  140.5763  156.0613 C.2     1  UNL1        0.0111
     14 H         138.4990  142.4043  158.4018 H       1  UNL1        0.1245
     15 C         137.3491  141.3804  163.2794 C.3     1  UNL1        0.1537
     16 N         138.1211  141.8973  162.1016 N.ar    1  UNL1       -0.2476
     17 C         138.8471  141.0628  161.0883 C.ar    1  UNL1        0.0944
     18 C         139.4772  141.9892  160.0909 C.ar    1  UNL1        0.0407
     19 C         139.1406  143.3961  160.4877 C.ar    1  UNL1        0.1193
     20 N         138.3024  143.3392  161.7305 N.ar    1  UNL1       -0.1679
     21 C         141.3895  141.8217  159.9069 C.ar    1  UNL1        0.0810
     22 C         142.0292  143.1746  160.0080 C.ar    1  UNL1        0.0168
     23 C         143.1191  143.4159  161.0099 C.ar    1  UNL1        0.0040
     24 C         143.5693  142.3042  161.9107 C.ar    1  UNL1        0.0331
     25 C         142.9296  140.9512  161.8096 C.ar    1  UNL1        0.0996
     26 N         141.8396  140.7100  160.8076 N.ar    1  UNL1       -0.2461
     27 C         144.6592  142.5454  162.9127 C.2     1  UNL1        0.0744
     28 O         145.9333  141.7574  162.8392 O.co2   1  UNL1       -0.5445
     29 O         144.4749  143.5747  163.9881 O.co2   1  UNL1       -0.5445
     30 C         137.3740  140.9577  156.2965 C.ar    1  UNL1        0.1318
     31 N         136.1282  140.5533  157.0274 N.ar    1  UNL1       -0.2298
     32 C         134.9871  140.5910  156.0546 C.ar    1  UNL1        0.0996
     33 C         135.5277  141.0189  154.7224 C.ar    1  UNL1        0.0927
     34 N         137.0029  141.2455  154.8720 N.ar    1  UNL1       -0.3386
     35 H         137.6194  141.5327  154.1601 H       1  UNL1        0.1672
     36 C         133.5565  140.2592  156.3602 C.ar    1  UNL1        0.0193
     37 C         132.4509  141.0439  155.7183 C.ar    1  UNL1        0.0039
     38 C         131.0204  140.7121  156.0239 C.ar    1  UNL1        0.0297
     39 C         130.6954  139.5957  156.9715 C.ar    1  UNL1        0.1401
     40 F         129.2648  139.2639  157.2771 F       1  UNL1       -0.2042
     41 C         131.8009  138.8111  157.6134 C.ar    1  UNL1        0.0297
     42 C         133.2315  139.1428  157.3078 C.ar    1  UNL1        0.0039
@<TRIPOS>UNITY_ATOM_ATTR
28 1
charge -1
@<TRIPOS>BOND
     1    15    16    1
     2    16    17   ar
     3    17    18   ar
     4     1    18    1
     5     1    21    1
     6    21    22   ar
     7    22    23   ar
     8    23    24   ar
     9    24    27    1
    10    27    28   ar
    11    27    29   ar
    12    24    25   ar
    13    25    26   ar
    14     1     2    1
    15     2     3    1
    16     3    30    1
    17    30    31   ar
    18    31    32   ar
    19    32    36    1
    20    36    37   ar
    21    37    38   ar
    22    38    39   ar
    23    39    40    1
    24    39    41   ar
    25    41    42   ar
    26    32    33   ar
    27    33    34   ar
    28     3     4    1
    29     4     5    1
    30     5     6    2
    31     6     7    1
    32     7     8    2
    33     8     9    1
    34     9    10    1
    35    10    11    2
    36    11    12    1
    37    12    13    2
    38    18    19   ar
    39    19    20   ar
    40    20    16   ar
    41     6     1    1
    42    13     8    1
    43    26    21   ar
    44    34    30   ar
    45    13     5    1
    46    42    36   ar
    47     2    14    1
    48    34    35    1
@<TRIPOS>MOLECULE
*****
 42 48 0 0 0
SMALL
GASTEIGER

@<TRIPOS>ATOM
      1 C         142.5884  140.5408  159.3245 C.3     1  UNL1        0.1354
      2 N         142.2661  140.2134  160.7524 N.3     1  UNL1       -0.2823
      3 C         142.1369  138.7824  161.1829 C.3     1  UNL1        0.1166
      4 C         142.3301  137.6787  160.1856 C.3     1  UNL1        0.0511
      5 C         142.6524  138.0061  158.7577 C.2     1  UNL1       -0.0038
      6 C         142.7816  139.4371  158.3272 C.2     1  UNL1        0.0768
      7 N         143.1046  139.4531  156.8624 N.2     1  UNL1       -0.2520
      8 C         143.1751  138.0319  156.3878 C.2     1  UNL1        0.0627
      9 C         143.4576  137.4366  155.0403 C.3     1  UNL1        0.0717
     10 C         143.4606  135.9470  154.8642 C.2     1  UNL1       -0.0198
     11 C         143.1812  135.0527  156.0356 C.2     1  UNL1       -0.0042
     12 C         142.8987  135.6480  157.3830 C.2     1  UNL1        0.0006
     13 C         142.8956  137.1376  157.5591 C.2     1  UNL1        0.0111
     14 H         141.3771  140.6662  160.9648 H       1  UNL1        0.1245
     15 C         140.7178  145.2630  160.7677 C.3     1  UNL1        0.1537
     16 N         141.6363  144.0957  160.5580 N.ar    1  UNL1       -0.2476
     17 C         141.2805  142.8039  159.8835 C.ar    1  UNL1        0.0944
     18 C         142.4960  141.9251  159.8946 C.ar    1  UNL1        0.0407
     19 C         143.6030  142.6737  160.5760 C.ar    1  UNL1        0.1193
     20 N         143.0716  144.0152  160.9860 N.ar    1  UNL1       -0.1679
     21 C         142.8787  141.3489  158.0945 C.ar    1  UNL1        0.0810
     22 C         141.7559  141.7795  157.1979 C.ar    1  UNL1        0.0168
     23 C         142.0461  142.5877  155.9679 C.ar    1  UNL1        0.0040
     24 C         143.4591  142.9651  155.6347 C.ar    1  UNL1        0.0331
     25 C         144.5819  142.5345  156.5313 C.ar    1  UNL1        0.0996
     26 N         144.2916  141.7263  157.7613 N.ar    1  UNL1       -0.2461
     27 C         143.7494  143.7732  154.4047 C.2     1  UNL1        0.0744
     28 O         145.1091  143.7173  153.7742 O.co2   1  UNL1       -0.5445
     29 O         142.6797  144.6373  153.8054 O.co2   1  UNL1       -0.5445
     30 C         141.8145  138.4549  162.6109 C.ar    1  UNL1        0.1318
     31 N         141.8734  139.4069  163.7686 N.ar    1  UNL1       -0.2298
     32 C         141.4720  138.6584  165.0050 C.ar    1  UNL1        0.0996
     33 C         141.1650  137.2439  164.6114 C.ar    1  UNL1        0.0927
     34 N         141.3767  137.1182  163.1317 N.ar    1  UNL1       -0.3386
     35 H         141.2504  136.3016  162.5964 H       1  UNL1        0.1672
     36 C         141.3916  139.2250  166.3916 C.ar    1  UNL1        0.0193
     37 C         142.6172  139.2705  167.2553 C.ar    1  UNL1        0.0039
     38 C         142.5369  139.8371  168.6418 C.ar    1  UNL1        0.0297
     39 C         141.2311  140.3582  169.1646 C.ar    1  UNL1        0.1401
     40 F         141.1508  140.9248  170.5512 F       1  UNL1       -0.2042
     41 C         140.0056  140.3127  168.3009 C.ar    1  UNL1        0.0297
     42 C         140.0859  139.7461  166.9144 C.ar    1  UNL1        0.0039
@<TRIPOS>UNITY_ATOM_ATTR
28 1
charge -1
@<TRIPOS>BOND
     1    15    16    1
     2    16    17   ar
     3    17    18   ar
     4     1    18    1
     5     1    21    1
     6    21    22   ar
     7    22    23   ar
     8    23    24   ar
     9    24    27    1
    10    27    28   ar
    11    27    29   ar
    12    24    25   ar
    13    25    26   ar
    14     1     2    1
    15     2     3    1
    16     3    30    1
    17    30    31   ar
    18    31    32   ar
    19    32    36    1
    20    36    37   ar
    21    37    38   ar
    22    38    39   ar
    23    39    40    1
    24    39    41   ar
    25    41    42   ar
    26    32    33   ar
    27    33    34   ar
    28     3     4    1
    29     4     5    1
    30     5     6    2
    31     6     7    1
    32     7     8    2
    33     8     9    1
    34     9    10    1
    35    10    11    2
    36    11    12    1
    37    12    13    2
    38    18    19   ar
    39    19    20   ar
    40    20    16   ar
    41     6     1    1
    42    13     8    1
    43    26    21   ar
    44    34    30   ar
    45    13     5    1
    46    42    36   ar
    47     2    14    1
    48    34    35    1
@<TRIPOS>MOLECULE
*****
 42 48 0 0 0
SMALL
GASTEIGER

@<TRIPOS>ATOM
      1 C         142.3845  140.3360  159.5067 C.3     1  UNL1        0.1354
      2 N         142.2894  138.9792  158.8742 N.3     1  UNL1       -0.2823
      3 C         142.0858  138.8547  157.3933 C.3     1  UNL1        0.1166
      4 C         141.9773  140.0870  156.5449 C.3     1  UNL1        0.0511
      5 C         142.0724  141.4438  157.1774 C.2     1  UNL1       -0.0038
      6 C         142.2760  141.5682  158.6583 C.2     1  UNL1        0.0768
      7 N         142.3316  143.0284  158.9973 N.2     1  UNL1       -0.2520
      8 C         142.1624  143.8063  157.7260 C.2     1  UNL1        0.0627
      9 C         142.1334  145.2798  157.4473 C.3     1  UNL1        0.0717
     10 C         141.9443  145.7740  156.0438 C.2     1  UNL1       -0.0198
     11 C         141.7841  144.7947  154.9190 C.2     1  UNL1       -0.0042
     12 C         141.8130  143.3211  155.1977 C.2     1  UNL1        0.0006
     13 C         142.0022  142.8269  156.6012 C.2     1  UNL1        0.0111
     14 H         141.5068  138.5006  159.3202 H       1  UNL1        0.1245
     15 C         141.3011  137.3244  163.7064 C.3     1  UNL1        0.1537
     16 N         142.0475  138.0863  162.6516 N.ar    1  UNL1       -0.2476
     17 C         141.4335  138.8769  161.5344 C.ar    1  UNL1        0.0944
     18 C         142.5454  139.4705  160.7212 C.ar    1  UNL1        0.0407
     19 C         143.8465  139.0468  161.3357 C.ar    1  UNL1        0.1193
     20 N         143.5387  138.1912  162.5288 N.ar    1  UNL1       -0.1679
     21 C         142.5355  141.3923  160.5610 C.ar    1  UNL1        0.0810
     22 C         141.3268  141.9082  161.2840 C.ar    1  UNL1        0.0168
     23 C         141.4777  142.9645  162.3384 C.ar    1  UNL1        0.0040
     24 C         142.8373  143.5047  162.6695 C.ar    1  UNL1        0.0331
     25 C         144.0460  142.9888  161.9464 C.ar    1  UNL1        0.0996
     26 N         143.8950  141.9325  160.8921 N.ar    1  UNL1       -0.2461
     27 C         142.9883  144.5610  163.7238 C.2     1  UNL1        0.0744
     28 O         144.1477  144.5118  164.6741 O.co2   1  UNL1       -0.5445
     29 O         141.9798  145.6665  163.8277 O.co2   1  UNL1       -0.5445
     30 C         141.9906  137.4979  156.7607 C.ar    1  UNL1        0.1318
     31 N         142.9793  136.3808  156.9175 N.ar    1  UNL1       -0.2298
     32 C         142.4899  135.2125  156.1140 C.ar    1  UNL1        0.0996
     33 C         141.1988  135.6076  155.4606 C.ar    1  UNL1        0.0927
     34 N         140.8902  137.0200  155.8603 N.ar    1  UNL1       -0.3386
     35 H         140.1036  137.5419  155.5807 H       1  UNL1        0.1672
     36 C         143.1719  133.8825  155.9864 C.ar    1  UNL1        0.0193
     37 C         144.1141  133.4171  157.0567 C.ar    1  UNL1        0.0039
     38 C         144.7960  132.0872  156.9291 C.ar    1  UNL1        0.0297
     39 C         144.5358  131.2228  155.7312 C.ar    1  UNL1        0.1401
     40 F         145.2178  129.8929  155.6035 F       1  UNL1       -0.2042
     41 C         143.5936  131.6883  154.6609 C.ar    1  UNL1        0.0297
     42 C         142.9116  133.0181  154.7885 C.ar    1  UNL1        0.0039
@<TRIPOS>UNITY_ATOM_ATTR
28 1
charge -1
@<TRIPOS>BOND
     1    15    16    1
     2    16    17   ar
     3    17    18   ar
     4     1    18    1
     5     1    21    1
     6    21    22   ar
     7    22    23   ar
     8    23    24   ar
     9    24    27    1
    10    27    28   ar
    11    27    29   ar
    12    24    25   ar
    13    25    26   ar
    14     1     2    1
    15     2     3    1
    16     3    30    1
    17    30    31   ar
    18    31    32   ar
    19    32    36    1
    20    36    37   ar
    21    37    38   ar
    22    38    39   ar
    23    39    40    1
    24    39    41   ar
    25    41    42   ar
    26    32    33   ar
    27    33    34   ar
    28     3     4    1
    29     4     5    1
    30     5     6    2
    31     6     7    1
    32     7     8    2
    33     8     9    1
    34     9    10    1
    35    10    11    2
    36    11    12    1
    37    12    13    2
    38    18    19   ar
    39    19    20   ar
    40    20    16   ar
    41     6     1    1
    42    13     8    1
    43    26    21   ar
    44    34    30   ar
    45    13     5    1
    46    42    36   ar
    47     2    14    1
    48    34    35    1
