@<TRIPOS>MOLECULE
*****
 43 46 0 0 0
SMALL
GASTEIGER

@<TRIPOS>ATOM
      1 C         142.7001  139.3115  159.6925 C.3     1  UNL1        0.0781
      2 C         143.1164  138.7568  161.0225 C.3     1  UNL1        0.0372
      3 C         143.9263  139.5967  161.9651 C.3     1  UNL1        0.0738
      4 N         144.3200  140.9913  161.5778 N.3     1  UNL1       -0.2725
      5 C         143.9037  141.5461  160.2477 C.3     1  UNL1        0.0738
      6 C         143.0938  140.7062  159.3051 C.3     1  UNL1        0.0372
      7 N         141.8902  138.4716  158.7498 N.am    1  UNL1       -0.2808
      8 C         140.4202  138.7260  158.5927 C.2     1  UNL1        0.2300
      9 O         139.6103  137.8861  157.6501 O.2     1  UNL1       -0.2745
     10 C         142.9980  137.6311  156.5553 C.3     1  UNL1        0.0233
     11 C         142.5502  137.3775  157.9642 C.3     1  UNL1        0.0934
     12 C         139.7603  139.8202  159.3783 C.3     1  UNL1        0.1116
     13 C         139.4485  139.6170  160.8315 C.ar    1  UNL1       -0.0130
     14 C         139.0834  138.2526  161.3365 C.ar    1  UNL1       -0.0025
     15 C         138.7716  138.0495  162.7896 C.ar    1  UNL1        0.0180
     16 C         138.8249  139.2107  163.7376 C.ar    1  UNL1        0.1057
     17 C         139.1900  140.5751  163.2325 C.ar    1  UNL1        0.0180
     18 C         139.5018  140.7782  161.7795 C.ar    1  UNL1       -0.0025
     19 S         138.5131  139.0075  165.1908 S.O2    1  UNL1        0.0104
     20 C         138.2013  138.8044  166.6438 C.3     1  UNL1        0.1816
     21 O         138.2007  140.4682  165.3279 O.2     1  UNL1       -0.1686
     22 O         138.8254  137.5469  165.0536 O.2     1  UNL1       -0.1686
     23 C         145.1299  141.8312  162.5205 C.3     1  UNL1        0.0728
     24 C         144.5362  143.0722  163.1183 C.3     1  UNL1        0.0261
     25 C         143.1870  143.0186  163.7715 C.3     1  UNL1        0.0461
     26 C         142.0300  143.7551  163.1643 C.ar    1  UNL1       -0.0139
     27 C         142.1396  144.3092  161.7747 C.ar    1  UNL1        0.0258
     28 C         140.9825  145.0458  161.1675 C.ar    1  UNL1        0.1421
     29 F         141.0922  145.5999  159.7779 F       1  UNL1       -0.2041
     30 C         139.7158  145.2283  161.9499 C.ar    1  UNL1        0.0592
     31 C         139.6062  144.6742  163.3395 C.ar    1  UNL1        0.1421
     32 F         138.3394  144.8567  164.1219 F       1  UNL1       -0.2041
     33 C         140.7632  143.9376  163.9467 C.ar    1  UNL1        0.0258
     34 C         142.9948  142.2284  165.0319 C.ar    1  UNL1       -0.0183
     35 C         142.4021  140.8517  164.9710 C.ar    1  UNL1       -0.0026
     36 C         142.2099  140.0616  166.2314 C.ar    1  UNL1        0.0180
     37 C         142.6103  140.6480  167.5527 C.ar    1  UNL1        0.1057
     38 C         143.2029  142.0246  167.6136 C.ar    1  UNL1        0.0180
     39 C         143.3951  142.8148  166.3532 C.ar    1  UNL1       -0.0026
     40 S         142.4180  139.8578  168.8131 S.O2    1  UNL1        0.0104
     41 C         142.2258  139.0677  170.0736 C.3     1  UNL1        0.1816
     42 O         143.2009  138.7235  168.2213 O.2     1  UNL1       -0.1686
     43 O         141.6352  140.9922  169.4049 O.2     1  UNL1       -0.1686
@<TRIPOS>BOND
     1    10    11    1
     2    11     7    1
     3     7     8   am
     4     8     9    2
     5     8    12    1
     6    12    13    1
     7    13    14   ar
     8    14    15   ar
     9    15    16   ar
    10    16    19    1
    11    19    20    1
    12    19    21    2
    13    19    22    2
    14    16    17   ar
    15    17    18   ar
    16     7     1    1
    17     1     2    1
    18     2     3    1
    19     3     4    1
    20     4    23    1
    21    23    24    1
    22    25    24    1
    23    25    34    1
    24    34    35   ar
    25    35    36   ar
    26    36    37   ar
    27    37    40    1
    28    40    41    1
    29    40    42    2
    30    40    43    2
    31    37    38   ar
    32    38    39   ar
    33    25    26    1
    34    26    27   ar
    35    27    28   ar
    36    28    29    1
    37    28    30   ar
    38    30    31   ar
    39    31    32    1
    40    31    33   ar
    41     4     5    1
    42     5     6    1
    43    18    13   ar
    44     6     1    1
    45    39    34   ar
    46    33    26   ar
@<TRIPOS>MOLECULE
*****
 43 46 0 0 0
SMALL
GASTEIGER

@<TRIPOS>ATOM
      1 C         140.7245  138.3521  160.9591 C.3     1  UNL1        0.0781
      2 C         139.3834  139.0049  161.1183 C.3     1  UNL1        0.0372
      3 C         138.6340  138.8736  162.4110 C.3     1  UNL1        0.0738
      4 N         139.2256  138.0894  163.5445 N.3     1  UNL1       -0.2725
      5 C         140.5667  137.4365  163.3854 C.3     1  UNL1        0.0738
      6 C         141.3161  137.5679  162.0927 C.3     1  UNL1        0.0372
      7 N         141.4739  138.4835  159.6664 N.am    1  UNL1       -0.2808
      8 C         142.9591  138.6935  159.6786 C.2     1  UNL1        0.2300
      9 O         143.7086  138.8248  158.3859 O.2     1  UNL1       -0.2745
     10 C         140.4845  139.6518  157.5674 C.3     1  UNL1        0.0233
     11 C         140.7382  138.4049  158.3616 C.3     1  UNL1        0.0934
     12 C         143.6948  138.7721  160.9834 C.3     1  UNL1        0.1116
     13 C         143.7929  140.0799  161.7115 C.ar    1  UNL1       -0.0130
     14 C         144.0118  140.0976  163.1953 C.ar    1  UNL1       -0.0025
     15 C         144.1098  141.4053  163.9234 C.ar    1  UNL1        0.0180
     16 C         143.9889  142.6954  163.1677 C.ar    1  UNL1        0.1057
     17 C         143.7700  142.6777  161.6839 C.ar    1  UNL1        0.0180
     18 C         143.6720  141.3699  160.9558 C.ar    1  UNL1       -0.0025
     19 S         144.0869  144.0032  163.8958 S.O2    1  UNL1        0.0104
     20 C         144.1850  145.3109  164.6240 C.3     1  UNL1        0.1816
     21 O         144.0473  143.2760  165.2071 O.2     1  UNL1       -0.1686
     22 O         144.1266  144.7304  162.5845 O.2     1  UNL1       -0.1686
     23 C         138.4761  137.9580  164.8372 C.3     1  UNL1        0.0728
     24 C         138.2713  139.1599  165.7109 C.3     1  UNL1        0.0261
     25 C         139.3756  140.1607  165.8806 C.3     1  UNL1        0.0461
     26 C         140.4707  139.9080  166.8740 C.ar    1  UNL1       -0.0139
     27 C         140.2928  140.3161  168.3064 C.ar    1  UNL1        0.0258
     28 C         141.3880  140.0633  169.2998 C.ar    1  UNL1        0.1421
     29 F         141.2101  140.4714  170.7323 F       1  UNL1       -0.2041
     30 C         142.6609  139.4025  168.8608 C.ar    1  UNL1        0.0592
     31 C         142.8388  138.9944  167.4284 C.ar    1  UNL1        0.1421
     32 F         144.1119  138.3335  166.9894 F       1  UNL1       -0.2041
     33 C         141.7438  139.2471  166.4350 C.ar    1  UNL1        0.0258
     34 C         139.3849  141.4143  165.0570 C.ar    1  UNL1       -0.0183
     35 C         138.1522  141.8303  164.3104 C.ar    1  UNL1       -0.0026
     36 C         138.1614  143.0839  163.4867 C.ar    1  UNL1        0.0180
     37 C         139.4034  143.9215  163.4096 C.ar    1  UNL1        0.1057
     38 C         140.6361  143.5055  164.1561 C.ar    1  UNL1        0.0180
     39 C         140.6269  142.2519  164.9798 C.ar    1  UNL1       -0.0026
     40 S         139.4127  145.1750  162.5859 S.O2    1  UNL1        0.0104
     41 C         139.4220  146.4286  161.7622 C.3     1  UNL1        0.1816
     42 O         137.9417  145.0215  162.3357 O.2     1  UNL1       -0.1686
     43 O         140.8836  145.3286  162.8361 O.2     1  UNL1       -0.1686
@<TRIPOS>BOND
     1    10    11    1
     2    11     7    1
     3     7     8   am
     4     8     9    2
     5     8    12    1
     6    12    13    1
     7    13    14   ar
     8    14    15   ar
     9    15    16   ar
    10    16    19    1
    11    19    20    1
    12    19    21    2
    13    19    22    2
    14    16    17   ar
    15    17    18   ar
    16     7     1    1
    17     1     2    1
    18     2     3    1
    19     3     4    1
    20     4    23    1
    21    23    24    1
    22    25    24    1
    23    25    34    1
    24    34    35   ar
    25    35    36   ar
    26    36    37   ar
    27    37    40    1
    28    40    41    1
    29    40    42    2
    30    40    43    2
    31    37    38   ar
    32    38    39   ar
    33    25    26    1
    34    26    27   ar
    35    27    28   ar
    36    28    29    1
    37    28    30   ar
    38    30    31   ar
    39    31    32    1
    40    31    33   ar
    41     4     5    1
    42     5     6    1
    43    18    13   ar
    44     6     1    1
    45    39    34   ar
    46    33    26   ar
@<TRIPOS>MOLECULE
*****
 43 46 0 0 0
SMALL
GASTEIGER

@<TRIPOS>ATOM
      1 C         142.6259  140.5154  166.9853 C.3     1  UNL1        0.0781
      2 C         142.9594  141.6444  166.0557 C.3     1  UNL1        0.0372
      3 C         143.6087  141.3605  164.7337 C.3     1  UNL1        0.0738
      4 N         143.9245  139.9477  164.3411 N.3     1  UNL1       -0.2725
      5 C         143.5910  138.8186  165.2707 C.3     1  UNL1        0.0738
      6 C         142.9417  139.1024  166.5927 C.3     1  UNL1        0.0372
      7 N         141.9766  140.7992  168.3073 N.am    1  UNL1       -0.2808
      8 C         140.4814  140.8622  168.4104 C.2     1  UNL1        0.2300
      9 O         139.8321  141.1460  169.7325 O.2     1  UNL1       -0.2745
     10 C         143.7135  142.2234  169.6128 C.3     1  UNL1        0.0233
     11 C         142.8224  141.0200  169.5263 C.3     1  UNL1        0.0934
     12 C         139.6356  140.6414  167.1915 C.3     1  UNL1        0.1116
     13 C         139.5945  141.6792  166.1091 C.ar    1  UNL1       -0.0130
     14 C         139.3337  141.2719  164.6892 C.ar    1  UNL1       -0.0025
     15 C         139.2926  142.3096  163.6069 C.ar    1  UNL1        0.0180
     16 C         139.5123  143.7546  163.9445 C.ar    1  UNL1        0.1057
     17 C         139.7731  144.1618  165.3643 C.ar    1  UNL1        0.0180
     18 C         139.8142  143.1241  166.4467 C.ar    1  UNL1       -0.0025
     19 S         139.4711  144.7923  162.8621 S.O2    1  UNL1        0.0104
     20 C         139.4300  145.8299  161.7797 C.3     1  UNL1        0.1816
     21 O         138.0937  144.3383  162.4792 O.2     1  UNL1       -0.1686
     22 O         140.8485  145.2463  163.2449 O.2     1  UNL1       -0.1686
     23 C         144.5738  139.6639  163.0191 C.3     1  UNL1        0.0728
     24 C         143.7599  139.1103  161.8872 C.3     1  UNL1        0.0261
     25 C         142.4370  139.7278  161.5426 C.3     1  UNL1        0.0461
     26 C         141.1672  139.1149  162.0543 C.ar    1  UNL1       -0.0139
     27 C         139.8835  139.3125  161.3039 C.ar    1  UNL1        0.0258
     28 C         138.6136  138.6996  161.8157 C.ar    1  UNL1        0.1421
     29 F         137.3299  138.8972  161.0653 F       1  UNL1       -0.2041
     30 C         138.6275  137.8890  163.0777 C.ar    1  UNL1        0.0592
     31 C         139.9112  137.6914  163.8280 C.ar    1  UNL1        0.1421
     32 F         139.9251  136.8808  165.0902 F       1  UNL1       -0.2041
     33 C         141.1810  138.3043  163.3164 C.ar    1  UNL1        0.0258
     34 C         142.3840  140.9581  160.6862 C.ar    1  UNL1       -0.0183
     35 C         142.2428  142.3092  161.3224 C.ar    1  UNL1       -0.0026
     36 C         142.1898  143.5396  160.4661 C.ar    1  UNL1        0.0180
     37 C         142.2779  143.4189  158.9735 C.ar    1  UNL1        0.1057
     38 C         142.4190  142.0679  158.3373 C.ar    1  UNL1        0.0180
     39 C         142.4721  140.8375  159.1937 C.ar    1  UNL1       -0.0026
     40 S         142.2248  144.6493  158.1172 S.O2    1  UNL1        0.0104
     41 C         142.1718  145.8797  157.2608 C.3     1  UNL1        0.1816
     42 O         141.8509  145.4682  159.3170 O.2     1  UNL1       -0.1686
     43 O         142.5988  143.8303  156.9174 O.2     1  UNL1       -0.1686
@<TRIPOS>BOND
     1    10    11    1
     2    11     7    1
     3     7     8   am
     4     8     9    2
     5     8    12    1
     6    12    13    1
     7    13    14   ar
     8    14    15   ar
     9    15    16   ar
    10    16    19    1
    11    19    20    1
    12    19    21    2
    13    19    22    2
    14    16    17   ar
    15    17    18   ar
    16     7     1    1
    17     1     2    1
    18     2     3    1
    19     3     4    1
    20     4    23    1
    21    23    24    1
    22    25    24    1
    23    25    34    1
    24    34    35   ar
    25    35    36   ar
    26    36    37   ar
    27    37    40    1
    28    40    41    1
    29    40    42    2
    30    40    43    2
    31    37    38   ar
    32    38    39   ar
    33    25    26    1
    34    26    27   ar
    35    27    28   ar
    36    28    29    1
    37    28    30   ar
    38    30    31   ar
    39    31    32    1
    40    31    33   ar
    41     4     5    1
    42     5     6    1
    43    18    13   ar
    44     6     1    1
    45    39    34   ar
    46    33    26   ar
@<TRIPOS>MOLECULE
*****
 43 46 0 0 0
SMALL
GASTEIGER

@<TRIPOS>ATOM
      1 C         140.0563  141.4591  166.7050 C.3     1  UNL1        0.0781
      2 C         140.2859  142.9405  166.7561 C.3     1  UNL1        0.0372
      3 C         139.6784  143.8301  165.7123 C.3     1  UNL1        0.0738
      4 N         138.8413  143.2383  164.6174 N.3     1  UNL1       -0.2725
      5 C         138.6117  141.7568  164.5662 C.3     1  UNL1        0.0738
      6 C         139.2192  140.8672  165.6100 C.3     1  UNL1        0.0372
      7 N         140.6638  140.5695  167.7488 N.am    1  UNL1       -0.2808
      8 C         142.1195  140.2145  167.6768 C.2     1  UNL1        0.2300
      9 O         142.7270  139.3249  168.7207 O.2     1  UNL1       -0.2745
     10 C         139.3531  140.9499  169.9594 C.3     1  UNL1        0.0233
     11 C         139.8158  140.0349  168.8646 C.3     1  UNL1        0.0934
     12 C         142.9676  140.7491  166.5611 C.3     1  UNL1        0.1116
     13 C         142.9621  140.0703  165.2234 C.ar    1  UNL1       -0.0130
     14 C         143.7192  140.6693  164.0754 C.ar    1  UNL1       -0.0025
     15 C         143.7136  139.9905  162.7378 C.ar    1  UNL1        0.0180
     16 C         142.9511  138.7128  162.5482 C.ar    1  UNL1        0.1057
     17 C         142.1940  138.1139  163.6963 C.ar    1  UNL1        0.0180
     18 C         142.1995  138.7926  165.0339 C.ar    1  UNL1       -0.0025
     19 S         142.9456  138.0340  161.2105 S.O2    1  UNL1        0.0104
     20 C         142.9400  137.3553  159.8729 C.3     1  UNL1        0.1816
     21 O         141.6232  137.4050  161.5352 O.2     1  UNL1       -0.1686
     22 O         144.2680  138.6631  160.8858 O.2     1  UNL1       -0.1686
     23 C         138.2338  144.1279  163.5736 C.3     1  UNL1        0.0728
     24 C         139.1168  144.8744  162.6181 C.3     1  UNL1        0.0261
     25 C         140.0716  144.1246  161.7372 C.3     1  UNL1        0.0461
     26 C         141.5376  144.1182  162.0545 C.ar    1  UNL1       -0.0139
     27 C         142.4840  143.3159  161.2114 C.ar    1  UNL1        0.0258
     28 C         143.9500  143.3095  161.5288 C.ar    1  UNL1        0.1421
     29 F         144.8964  142.5072  160.6857 F       1  UNL1       -0.2041
     30 C         144.4697  144.1054  162.6891 C.ar    1  UNL1        0.0592
     31 C         143.5233  144.9076  163.5322 C.ar    1  UNL1        0.1421
     32 F         144.0431  145.7035  164.6926 F       1  UNL1       -0.2041
     33 C         142.0573  144.9141  163.2149 C.ar    1  UNL1        0.0258
     34 C         139.5604  143.3811  160.5389 C.ar    1  UNL1       -0.0183
     35 C         139.7283  143.9638  159.1669 C.ar    1  UNL1       -0.0026
     36 C         139.2170  143.2203  157.9686 C.ar    1  UNL1        0.0180
     37 C         138.5379  141.8942  158.1423 C.ar    1  UNL1        0.1057
     38 C         138.3700  141.3115  159.5142 C.ar    1  UNL1        0.0180
     39 C         138.8812  142.0550  160.7126 C.ar    1  UNL1       -0.0026
     40 S         138.0267  141.1507  156.9440 S.O2    1  UNL1        0.0104
     41 C         137.5155  140.4073  155.7456 C.3     1  UNL1        0.1816
     42 O         137.2099  140.2679  157.8403 O.2     1  UNL1       -0.1686
     43 O         138.8435  142.0336  156.0478 O.2     1  UNL1       -0.1686
@<TRIPOS>BOND
     1    10    11    1
     2    11     7    1
     3     7     8   am
     4     8     9    2
     5     8    12    1
     6    12    13    1
     7    13    14   ar
     8    14    15   ar
     9    15    16   ar
    10    16    19    1
    11    19    20    1
    12    19    21    2
    13    19    22    2
    14    16    17   ar
    15    17    18   ar
    16     7     1    1
    17     1     2    1
    18     2     3    1
    19     3     4    1
    20     4    23    1
    21    23    24    1
    22    25    24    1
    23    25    34    1
    24    34    35   ar
    25    35    36   ar
    26    36    37   ar
    27    37    40    1
    28    40    41    1
    29    40    42    2
    30    40    43    2
    31    37    38   ar
    32    38    39   ar
    33    25    26    1
    34    26    27   ar
    35    27    28   ar
    36    28    29    1
    37    28    30   ar
    38    30    31   ar
    39    31    32    1
    40    31    33   ar
    41     4     5    1
    42     5     6    1
    43    18    13   ar
    44     6     1    1
    45    39    34   ar
    46    33    26   ar
@<TRIPOS>MOLECULE
*****
 43 46 0 0 0
SMALL
GASTEIGER

@<TRIPOS>ATOM
      1 C         141.4653  138.3408  160.4028 C.3     1  UNL1        0.0781
      2 C         142.1443  138.0976  161.7180 C.3     1  UNL1        0.0372
      3 C         141.3258  137.8969  162.9589 C.3     1  UNL1        0.0738
      4 N         139.8282  137.9394  162.8845 N.3     1  UNL1       -0.2725
      5 C         139.1492  138.1825  161.5692 C.3     1  UNL1        0.0738
      6 C         139.9677  138.3832  160.3284 C.3     1  UNL1        0.0372
      7 N         142.2839  138.5414  159.1620 N.am    1  UNL1       -0.2808
      8 C         142.4701  139.9202  158.6012 C.2     1  UNL1        0.2300
      9 O         143.2887  140.1209  157.3603 O.2     1  UNL1       -0.2745
     10 C         142.3818  136.8814  157.1659 C.3     1  UNL1        0.0233
     11 C         142.9162  137.3635  158.4819 C.3     1  UNL1        0.0934
     12 C         141.8378  141.0982  159.2812 C.3     1  UNL1        0.1116
     13 C         142.4258  141.6350  160.5525 C.ar    1  UNL1       -0.0130
     14 C         143.8763  142.0131  160.6069 C.ar    1  UNL1       -0.0025
     15 C         144.4643  142.5498  161.8782 C.ar    1  UNL1        0.0180
     16 C         143.6017  142.7085  163.0950 C.ar    1  UNL1        0.1057
     17 C         142.1512  142.3304  163.0407 C.ar    1  UNL1        0.0180
     18 C         141.5632  141.7936  161.7694 C.ar    1  UNL1       -0.0025
     19 S         144.1897  143.2453  164.3664 S.O2    1  UNL1        0.0104
     20 C         144.7777  143.7820  165.6376 C.3     1  UNL1        0.1816
     21 O         144.3681  141.8454  164.8748 O.2     1  UNL1       -0.1686
     22 O         144.0113  144.6451  163.8579 O.2     1  UNL1       -0.1686
     23 C         139.0097  137.7387  164.1254 C.3     1  UNL1        0.0728
     24 C         138.2075  138.8751  164.6866 C.3     1  UNL1        0.0261
     25 C         138.8988  140.1195  165.1593 C.3     1  UNL1        0.0461
     26 C         138.6844  141.4168  164.4375 C.ar    1  UNL1       -0.0139
     27 C         138.8497  142.7171  165.1668 C.ar    1  UNL1        0.0258
     28 C         138.6353  144.0144  164.4449 C.ar    1  UNL1        0.1421
     29 F         138.8005  145.3148  165.1742 F       1  UNL1       -0.2041
     30 C         138.2556  144.0114  162.9938 C.ar    1  UNL1        0.0592
     31 C         138.0904  142.7111  162.2645 C.ar    1  UNL1        0.1421
     32 F         137.7108  142.7081  160.8132 F       1  UNL1       -0.2041
     33 C         138.3048  141.4138  162.9863 C.ar    1  UNL1        0.0258
     34 C         139.8045  140.0667  166.3538 C.ar    1  UNL1       -0.0183
     35 C         141.2926  140.0420  166.1663 C.ar    1  UNL1       -0.0026
     36 C         142.1983  139.9891  167.3608 C.ar    1  UNL1        0.0180
     37 C         141.6160  139.9611  168.7429 C.ar    1  UNL1        0.1057
     38 C         140.1280  139.9859  168.9304 C.ar    1  UNL1        0.0180
     39 C         139.2222  140.0387  167.7359 C.ar    1  UNL1       -0.0026
     40 S         142.5217  139.9083  169.9374 S.O2    1  UNL1        0.0104
     41 C         143.4274  139.8554  171.1319 C.3     1  UNL1        0.1816
     42 O         141.8716  141.1442  170.4849 O.2     1  UNL1       -0.1686
     43 O         143.1718  138.6724  169.3898 O.2     1  UNL1       -0.1686
@<TRIPOS>BOND
     1    10    11    1
     2    11     7    1
     3     7     8   am
     4     8     9    2
     5     8    12    1
     6    12    13    1
     7    13    14   ar
     8    14    15   ar
     9    15    16   ar
    10    16    19    1
    11    19    20    1
    12    19    21    2
    13    19    22    2
    14    16    17   ar
    15    17    18   ar
    16     7     1    1
    17     1     2    1
    18     2     3    1
    19     3     4    1
    20     4    23    1
    21    23    24    1
    22    25    24    1
    23    25    34    1
    24    34    35   ar
    25    35    36   ar
    26    36    37   ar
    27    37    40    1
    28    40    41    1
    29    40    42    2
    30    40    43    2
    31    37    38   ar
    32    38    39   ar
    33    25    26    1
    34    26    27   ar
    35    27    28   ar
    36    28    29    1
    37    28    30   ar
    38    30    31   ar
    39    31    32    1
    40    31    33   ar
    41     4     5    1
    42     5     6    1
    43    18    13   ar
    44     6     1    1
    45    39    34   ar
    46    33    26   ar
@<TRIPOS>MOLECULE
*****
 43 46 0 0 0
SMALL
GASTEIGER

@<TRIPOS>ATOM
      1 C         142.6023  140.5300  167.2912 C.3     1  UNL1        0.0781
      2 C         142.9704  141.9823  167.2189 C.3     1  UNL1        0.0372
      3 C         143.7088  142.5103  166.0247 C.3     1  UNL1        0.0738
      4 N         144.0791  141.5860  164.9030 N.3     1  UNL1       -0.2725
      5 C         143.7111  140.1336  164.9753 C.3     1  UNL1        0.0738
      6 C         142.9726  139.6056  166.1694 C.3     1  UNL1        0.0372
      7 N         141.8639  140.0020  168.4853 N.am    1  UNL1       -0.2808
      8 C         140.4171  140.3446  168.6843 C.2     1  UNL1        0.2300
      9 O         139.6786  139.8166  169.8784 O.2     1  UNL1       -0.2745
     10 C         143.0795  139.7192  170.7639 C.3     1  UNL1        0.0233
     11 C         142.5722  139.1315  169.4805 C.3     1  UNL1        0.0934
     12 C         139.7088  141.2151  167.6891 C.3     1  UNL1        0.1116
     13 C         139.3380  140.6669  166.3429 C.ar    1  UNL1       -0.0130
     14 C         139.1402  139.1910  166.1627 C.ar    1  UNL1       -0.0025
     15 C         138.7695  138.6429  164.8166 C.ar    1  UNL1        0.0180
     16 C         138.5966  139.5707  163.6507 C.ar    1  UNL1        0.1057
     17 C         138.7944  141.0466  163.8309 C.ar    1  UNL1        0.0180
     18 C         139.1651  141.5947  165.1770 C.ar    1  UNL1       -0.0025
     19 S         138.2258  139.0225  162.3045 S.O2    1  UNL1        0.0104
     20 C         137.8551  138.4742  160.9585 C.3     1  UNL1        0.1816
     21 O         138.4894  137.6310  162.7987 O.2     1  UNL1       -0.1686
     22 O         137.9622  140.4140  161.8104 O.2     1  UNL1       -0.1686
     23 C         144.8176  142.1140  163.7088 C.3     1  UNL1        0.0728
     24 C         144.2045  143.1911  162.8639 C.3     1  UNL1        0.0261
     25 C         142.9465  142.9162  162.0947 C.3     1  UNL1        0.0461
     26 C         141.7732  143.8423  162.2200 C.ar    1  UNL1       -0.0139
     27 C         141.0998  144.0242  163.5479 C.ar    1  UNL1        0.0258
     28 C         139.9264  144.9504  163.6731 C.ar    1  UNL1        0.1421
     29 F         139.2530  145.1324  165.0010 F       1  UNL1       -0.2041
     30 C         139.4267  145.6946  162.4705 C.ar    1  UNL1        0.0592
     31 C         140.1001  145.5127  161.1426 C.ar    1  UNL1        0.1421
     32 F         139.6003  146.2569  159.9399 F       1  UNL1       -0.2041
     33 C         141.2734  144.5866  161.0173 C.ar    1  UNL1        0.0258
     34 C         142.8617  141.7151  161.2002 C.ar    1  UNL1       -0.0183
     35 C         143.7908  141.5844  160.0298 C.ar    1  UNL1       -0.0026
     36 C         143.7060  140.3834  159.1353 C.ar    1  UNL1        0.0180
     37 C         142.6921  139.3129  159.4111 C.ar    1  UNL1        0.1057
     38 C         141.7629  139.4435  160.5814 C.ar    1  UNL1        0.0180
     39 C         141.8477  140.6447  161.4759 C.ar    1  UNL1       -0.0026
     40 S         142.6073  138.1118  158.5166 S.O2    1  UNL1        0.0104
     41 C         142.5225  136.9107  157.6221 C.3     1  UNL1        0.1816
     42 O         141.9437  138.9452  157.4606 O.2     1  UNL1       -0.1686
     43 O         143.2708  137.2785  159.5726 O.2     1  UNL1       -0.1686
@<TRIPOS>BOND
     1    10    11    1
     2    11     7    1
     3     7     8   am
     4     8     9    2
     5     8    12    1
     6    12    13    1
     7    13    14   ar
     8    14    15   ar
     9    15    16   ar
    10    16    19    1
    11    19    20    1
    12    19    21    2
    13    19    22    2
    14    16    17   ar
    15    17    18   ar
    16     7     1    1
    17     1     2    1
    18     2     3    1
    19     3     4    1
    20     4    23    1
    21    23    24    1
    22    25    24    1
    23    25    34    1
    24    34    35   ar
    25    35    36   ar
    26    36    37   ar
    27    37    40    1
    28    40    41    1
    29    40    42    2
    30    40    43    2
    31    37    38   ar
    32    38    39   ar
    33    25    26    1
    34    26    27   ar
    35    27    28   ar
    36    28    29    1
    37    28    30   ar
    38    30    31   ar
    39    31    32    1
    40    31    33   ar
    41     4     5    1
    42     5     6    1
    43    18    13   ar
    44     6     1    1
    45    39    34   ar
    46    33    26   ar
@<TRIPOS>MOLECULE
*****
 43 46 0 0 0
SMALL
GASTEIGER

@<TRIPOS>ATOM
      1 C         143.0879  141.8655  166.5149 C.3     1  UNL1        0.0781
      2 C         143.8256  143.0850  166.0474 C.3     1  UNL1        0.0372
      3 C         144.5372  143.0708  164.7270 C.3     1  UNL1        0.0738
      4 N         144.5111  141.8372  163.8741 N.3     1  UNL1       -0.2725
      5 C         143.7733  140.6177  164.3416 C.3     1  UNL1        0.0738
      6 C         143.0617  140.6318  165.6620 C.3     1  UNL1        0.0372
      7 N         142.3762  141.8797  167.8352 N.am    1  UNL1       -0.2808
      8 C         140.9790  142.4175  167.9285 C.2     1  UNL1        0.2300
      9 O         140.2674  142.4316  169.2488 O.2     1  UNL1       -0.2745
     10 C         143.8491  142.2868  169.9363 C.3     1  UNL1        0.0233
     11 C         143.0618  141.3561  169.0624 C.3     1  UNL1        0.0934
     12 C         140.2935  142.9411  166.7014 C.3     1  UNL1        0.1116
     13 C         139.7583  141.9859  165.6760 C.ar    1  UNL1       -0.0130
     14 C         139.5782  142.4336  164.2557 C.ar    1  UNL1       -0.0025
     15 C         139.0431  141.4785  163.2304 C.ar    1  UNL1        0.0180
     16 C         138.6880  140.0756  163.6254 C.ar    1  UNL1        0.1057
     17 C         138.8681  139.6279  165.0456 C.ar    1  UNL1        0.0180
     18 C         139.4032  140.5831  166.0709 C.ar    1  UNL1       -0.0025
     19 S         138.1528  139.1205  162.6000 S.O2    1  UNL1        0.0104
     20 C         137.6177  138.1653  161.5747 C.3     1  UNL1        0.1816
     21 O         138.6297  137.9643  163.4282 O.2     1  UNL1       -0.1686
     22 O         137.6760  140.2766  161.7718 O.2     1  UNL1       -0.1686
     23 C         145.2227  141.8231  162.5537 C.3     1  UNL1        0.0728
     24 C         144.8014  142.7644  161.4645 C.3     1  UNL1        0.0261
     25 C         143.4414  142.6342  160.8453 C.3     1  UNL1        0.0461
     26 C         142.4036  143.6901  161.0860 C.ar    1  UNL1       -0.0139
     27 C         141.6522  144.2806  159.9298 C.ar    1  UNL1        0.0258
     28 C         140.6144  145.3366  160.1705 C.ar    1  UNL1        0.1421
     29 F         139.8630  145.9271  159.0143 F       1  UNL1       -0.2041
     30 C         140.3279  145.8020  161.5674 C.ar    1  UNL1        0.0592
     31 C         141.0792  145.2115  162.7236 C.ar    1  UNL1        0.1421
     32 F         140.7927  145.6770  164.1205 F       1  UNL1       -0.2041
     33 C         142.1171  144.1556  162.4829 C.ar    1  UNL1        0.0258
     34 C         143.1192  141.4482  159.9854 C.ar    1  UNL1       -0.0183
     35 C         143.8958  141.2019  158.7259 C.ar    1  UNL1       -0.0026
     36 C         143.5736  140.0159  157.8659 C.ar    1  UNL1        0.0180
     37 C         142.4749  139.0762  158.2654 C.ar    1  UNL1        0.1057
     38 C         141.6983  139.3224  159.5249 C.ar    1  UNL1        0.0180
     39 C         142.0205  140.5085  160.3849 C.ar    1  UNL1       -0.0026
     40 S         142.1527  137.8901  157.4055 S.O2    1  UNL1        0.0104
     41 C         141.8306  136.7041  156.5455 C.3     1  UNL1        0.1816
     42 O         140.7311  137.9307  157.8822 O.2     1  UNL1       -0.1686
     43 O         143.5743  137.8496  156.9288 O.2     1  UNL1       -0.1686
@<TRIPOS>BOND
     1    10    11    1
     2    11     7    1
     3     7     8   am
     4     8     9    2
     5     8    12    1
     6    12    13    1
     7    13    14   ar
     8    14    15   ar
     9    15    16   ar
    10    16    19    1
    11    19    20    1
    12    19    21    2
    13    19    22    2
    14    16    17   ar
    15    17    18   ar
    16     7     1    1
    17     1     2    1
    18     2     3    1
    19     3     4    1
    20     4    23    1
    21    23    24    1
    22    25    24    1
    23    25    34    1
    24    34    35   ar
    25    35    36   ar
    26    36    37   ar
    27    37    40    1
    28    40    41    1
    29    40    42    2
    30    40    43    2
    31    37    38   ar
    32    38    39   ar
    33    25    26    1
    34    26    27   ar
    35    27    28   ar
    36    28    29    1
    37    28    30   ar
    38    30    31   ar
    39    31    32    1
    40    31    33   ar
    41     4     5    1
    42     5     6    1
    43    18    13   ar
    44     6     1    1
    45    39    34   ar
    46    33    26   ar
@<TRIPOS>MOLECULE
*****
 43 46 0 0 0
SMALL
GASTEIGER

@<TRIPOS>ATOM
      1 C         139.2891  139.0433  165.2923 C.3     1  UNL1        0.0781
      2 C         138.5155  139.6470  164.1579 C.3     1  UNL1        0.0372
      3 C         138.9079  139.3505  162.7408 C.3     1  UNL1        0.0738
      4 N         140.0739  138.4503  162.4581 N.3     1  UNL1       -0.2725
      5 C         140.8476  137.8465  163.5925 C.3     1  UNL1        0.0738
      6 C         140.4552  138.1430  165.0096 C.3     1  UNL1        0.0372
      7 N         138.8968  139.3398  166.7094 N.am    1  UNL1       -0.2808
      8 C         139.6679  140.3508  167.5052 C.2     1  UNL1        0.2300
      9 O         139.2755  140.6473  168.9223 O.2     1  UNL1       -0.2745
     10 C         137.3938  137.2292  166.9000 C.3     1  UNL1        0.0233
     11 C         137.7333  138.6254  167.3306 C.3     1  UNL1        0.0934
     12 C         140.8313  141.0652  166.8840 C.3     1  UNL1        0.1116
     13 C         140.5959  142.1103  165.8340 C.ar    1  UNL1       -0.0130
     14 C         139.6643  143.2532  166.1091 C.ar    1  UNL1       -0.0025
     15 C         139.4289  144.2983  165.0591 C.ar    1  UNL1        0.0180
     16 C         140.1252  144.2004  163.7341 C.ar    1  UNL1        0.1057
     17 C         141.0569  143.0575  163.4591 C.ar    1  UNL1        0.0180
     18 C         141.2923  142.0124  164.5091 C.ar    1  UNL1       -0.0025
     19 S         139.8898  145.2455  162.6842 S.O2    1  UNL1        0.0104
     20 C         139.6545  146.2906  161.6342 C.3     1  UNL1        0.1816
     21 O         141.3072  145.7135  162.8323 O.2     1  UNL1       -0.1686
     22 O         138.4725  144.7775  162.5360 O.2     1  UNL1       -0.1686
     23 C         140.4663  138.1538  161.0410 C.3     1  UNL1        0.0728
     24 C         141.7929  138.6182  160.5173 C.3     1  UNL1        0.0261
     25 C         142.1156  140.0827  160.4853 C.3     1  UNL1        0.0461
     26 C         143.1464  140.6442  161.4191 C.ar    1  UNL1       -0.0139
     27 C         143.5408  142.0880  161.3204 C.ar    1  UNL1        0.0258
     28 C         144.5717  142.6494  162.2544 C.ar    1  UNL1        0.1421
     29 F         144.9661  144.0933  162.1557 F       1  UNL1       -0.2041
     30 C         145.2082  141.7670  163.2869 C.ar    1  UNL1        0.0592
     31 C         144.8138  140.3232  163.3856 C.ar    1  UNL1        0.1421
     32 F         145.4504  139.4407  164.4182 F       1  UNL1       -0.2041
     33 C         143.7830  139.7617  162.4517 C.ar    1  UNL1        0.0258
     34 C         141.4075  140.9858  159.5194 C.ar    1  UNL1       -0.0183
     35 C         141.9348  141.1538  158.1252 C.ar    1  UNL1       -0.0026
     36 C         141.2267  142.0569  157.1593 C.ar    1  UNL1        0.0180
     37 C         139.9913  142.7920  157.5876 C.ar    1  UNL1        0.1057
     38 C         139.4640  142.6240  158.9817 C.ar    1  UNL1        0.0180
     39 C         140.1721  141.7209  159.9477 C.ar    1  UNL1       -0.0026
     40 S         139.2831  143.6951  156.6217 S.O2    1  UNL1        0.0104
     41 C         138.5750  144.5982  155.6557 C.3     1  UNL1        0.1816
     42 O         137.9679  143.1014  157.0309 O.2     1  UNL1       -0.1686
     43 O         140.5984  144.2887  156.2125 O.2     1  UNL1       -0.1686
@<TRIPOS>BOND
     1    10    11    1
     2    11     7    1
     3     7     8   am
     4     8     9    2
     5     8    12    1
     6    12    13    1
     7    13    14   ar
     8    14    15   ar
     9    15    16   ar
    10    16    19    1
    11    19    20    1
    12    19    21    2
    13    19    22    2
    14    16    17   ar
    15    17    18   ar
    16     7     1    1
    17     1     2    1
    18     2     3    1
    19     3     4    1
    20     4    23    1
    21    23    24    1
    22    25    24    1
    23    25    34    1
    24    34    35   ar
    25    35    36   ar
    26    36    37   ar
    27    37    40    1
    28    40    41    1
    29    40    42    2
    30    40    43    2
    31    37    38   ar
    32    38    39   ar
    33    25    26    1
    34    26    27   ar
    35    27    28   ar
    36    28    29    1
    37    28    30   ar
    38    30    31   ar
    39    31    32    1
    40    31    33   ar
    41     4     5    1
    42     5     6    1
    43    18    13   ar
    44     6     1    1
    45    39    34   ar
    46    33    26   ar
@<TRIPOS>MOLECULE
*****
 43 46 0 0 0
SMALL
GASTEIGER

@<TRIPOS>ATOM
      1 C         142.5240  140.3195  166.6517 C.3     1  UNL1        0.0781
      2 C         142.5327  138.8669  166.2779 C.3     1  UNL1        0.0372
      3 C         143.0825  138.4374  164.9500 C.3     1  UNL1        0.0738
      4 N         143.6235  139.4606  163.9959 N.3     1  UNL1       -0.2725
      5 C         143.6148  140.9133  164.3696 C.3     1  UNL1        0.0738
      6 C         143.0650  141.3427  165.6976 C.3     1  UNL1        0.0372
      7 N         141.9743  140.7489  167.9796 N.am    1  UNL1       -0.2808
      8 C         140.5092  141.0344  168.1280 C.2     1  UNL1        0.2300
      9 O         139.9594  141.4639  169.4559 O.2     1  UNL1       -0.2745
     10 C         143.5139  142.2218  169.4662 C.3     1  UNL1        0.0233
     11 C         142.8896  140.8929  169.1592 C.3     1  UNL1        0.0934
     12 C         139.5938  140.8905  166.9484 C.3     1  UNL1        0.1116
     13 C         139.6000  141.9264  165.8635 C.ar    1  UNL1       -0.0130
     14 C         139.3678  141.5209  164.4381 C.ar    1  UNL1       -0.0025
     15 C         139.3739  142.5568  163.3533 C.ar    1  UNL1        0.0180
     16 C         139.6122  143.9980  163.6938 C.ar    1  UNL1        0.1057
     17 C         139.8444  144.4035  165.1191 C.ar    1  UNL1        0.0180
     18 C         139.8383  143.3676  166.2040 C.ar    1  UNL1       -0.0025
     19 S         139.6184  145.0339  162.6088 S.O2    1  UNL1        0.0104
     20 C         139.6245  146.0697  161.5239 C.3     1  UNL1        0.1816
     21 O         138.1497  144.8177  162.3941 O.2     1  UNL1       -0.1686
     22 O         141.0871  145.2501  162.8235 O.2     1  UNL1       -0.1686
     23 C         144.1732  139.0311  162.6679 C.3     1  UNL1        0.0728
     24 C         143.4708  137.9707  161.8729 C.3     1  UNL1        0.0261
     25 C         142.4272  138.3556  160.8665 C.3     1  UNL1        0.0461
     26 C         140.9884  138.4548  161.2785 C.ar    1  UNL1       -0.0139
     27 C         140.0094  139.1913  160.4129 C.ar    1  UNL1        0.0258
     28 C         138.5705  139.2905  160.8250 C.ar    1  UNL1        0.1421
     29 F         137.5916  140.0270  159.9594 F       1  UNL1       -0.2041
     30 C         138.1106  138.6532  162.1026 C.ar    1  UNL1        0.0592
     31 C         139.0896  137.9167  162.9682 C.ar    1  UNL1        0.1421
     32 F         138.6296  137.2795  164.2459 F       1  UNL1       -0.2041
     33 C         140.5284  137.8175  162.5562 C.ar    1  UNL1        0.0258
     34 C         142.8226  138.6412  159.4480 C.ar    1  UNL1       -0.0183
     35 C         143.4269  139.9667  159.0902 C.ar    1  UNL1       -0.0026
     36 C         143.8222  140.2523  157.6718 C.ar    1  UNL1        0.0180
     37 C         143.6132  139.2125  156.6110 C.ar    1  UNL1        0.1057
     38 C         143.0090  137.8871  156.9688 C.ar    1  UNL1        0.0180
     39 C         142.6136  137.6014  158.3873 C.ar    1  UNL1       -0.0026
     40 S         144.0086  139.4982  155.1926 S.O2    1  UNL1        0.0104
     41 C         144.4040  139.7838  153.7740 C.3     1  UNL1        0.1816
     42 O         142.8915  140.4931  155.0816 O.2     1  UNL1       -0.1686
     43 O         145.1256  138.5033  155.3035 O.2     1  UNL1       -0.1686
@<TRIPOS>BOND
     1    10    11    1
     2    11     7    1
     3     7     8   am
     4     8     9    2
     5     8    12    1
     6    12    13    1
     7    13    14   ar
     8    14    15   ar
     9    15    16   ar
    10    16    19    1
    11    19    20    1
    12    19    21    2
    13    19    22    2
    14    16    17   ar
    15    17    18   ar
    16     7     1    1
    17     1     2    1
    18     2     3    1
    19     3     4    1
    20     4    23    1
    21    23    24    1
    22    25    24    1
    23    25    34    1
    24    34    35   ar
    25    35    36   ar
    26    36    37   ar
    27    37    40    1
    28    40    41    1
    29    40    42    2
    30    40    43    2
    31    37    38   ar
    32    38    39   ar
    33    25    26    1
    34    26    27   ar
    35    27    28   ar
    36    28    29    1
    37    28    30   ar
    38    30    31   ar
    39    31    32    1
    40    31    33   ar
    41     4     5    1
    42     5     6    1
    43    18    13   ar
    44     6     1    1
    45    39    34   ar
    46    33    26   ar
