@<TRIPOS>MOLECULE
*****
 29 32 0 0 0
SMALL
GASTEIGER

@<TRIPOS>ATOM
      1 N         141.8869  138.3729  158.3996 N.ar    1  UNL1       -0.2286
      2 C         140.7863  139.3585  158.1404 C.ar    1  UNL1        0.0990
      3 C         140.2544  139.8184  159.4654 C.ar    1  UNL1        0.0338
      4 C         141.0263  139.1170  160.5435 C.ar    1  UNL1        0.0981
      5 N         142.0352  138.2236  159.8847 N.ar    1  UNL1       -0.1680
      6 C         140.4944  139.5768  161.8685 C.3     1  UNL1        0.1414
      7 N         139.3937  140.5625  161.6093 N.am    1  UNL1       -0.2660
      8 C         138.5837  141.2739  162.6521 C.2     1  UNL1        0.2525
      9 O         137.5101  142.2371  162.2400 O.2     1  UNL1       -0.2698
     10 C         139.2455  140.7117  160.1241 C.3     1  UNL1        0.1236
     11 C         143.7786  133.9637  156.4046 C.3     1  UNL1        0.0521
     12 C         143.6429  135.4568  156.3592 C.ar    1  UNL1        0.0609
     13 C         142.8328  136.1683  157.4020 C.ar    1  UNL1        0.0339
     14 C         142.6970  137.6615  157.3567 C.ar    1  UNL1        0.0855
     15 C         143.3713  138.4432  156.2685 C.ar    1  UNL1        0.0398
     16 C         144.1814  137.7316  155.2256 C.ar    1  UNL1        0.1000
     17 N         144.3172  136.2385  155.2710 N.ar    1  UNL1       -0.2480
     18 C         138.8471  141.0222  164.1072 C.ar    1  UNL1        0.0881
     19 C         138.1522  139.8945  164.8110 C.ar    1  UNL1        0.0178
     20 C         138.4156  139.6427  166.2662 C.ar    1  UNL1        0.0688
     21 C         139.3738  140.5187  167.0174 C.ar    1  UNL1        0.0134
     22 C         140.0687  141.6465  166.3136 C.ar    1  UNL1        0.0377
     23 C         139.8053  141.8982  164.8585 C.ar    1  UNL1        0.1427
     24 C         137.7207  138.5150  166.9699 C.1     1  UNL1        0.1004
     25 N         137.0258  137.3873  167.6737 N.1     1  UNL1       -0.1908
     26 O         140.5002  143.0259  164.1547 O.3     1  UNL1       -0.4790
     27 C         139.8194  144.3550  164.0137 C.3     1  UNL1        0.1661
     28 C         140.0739  145.2035  162.8032 C.3     1  UNL1        0.0472
     29 C         138.8840  144.8357  165.0833 C.3     1  UNL1        0.0472
@<TRIPOS>BOND
     1    11    12    1
     2    12    13   ar
     3    13    14   ar
     4    14     1    1
     5     1     2   ar
     6     2     3   ar
     7     3     4   ar
     8     4     5   ar
     9     4     6    1
    10     6     7    1
    11     7     8   am
    12     8     9    2
    13     8    18    1
    14    18    19   ar
    15    19    20   ar
    16    20    24    1
    17    24    25    3
    18    20    21   ar
    19    21    22   ar
    20    22    23   ar
    21    23    26    1
    22    26    27    1
    23    27    28    1
    24    27    29    1
    25     7    10    1
    26    14    15   ar
    27    15    16   ar
    28    16    17   ar
    29    17    12   ar
    30     5     1   ar
    31    23    18   ar
    32    10     3    1
@<TRIPOS>MOLECULE
*****
 29 32 0 0 0
SMALL
GASTEIGER

@<TRIPOS>ATOM
      1 N         140.1353  138.3158  157.8056 N.ar    1  UNL1       -0.2286
      2 C         139.2478  139.5241  157.7568 C.ar    1  UNL1        0.0990
      3 C         139.0547  140.0143  159.1612 C.ar    1  UNL1        0.0338
      4 C         139.8229  139.1090  160.0779 C.ar    1  UNL1        0.0981
      5 N         140.4907  138.0592  159.2401 N.ar    1  UNL1       -0.1680
      6 C         139.6298  139.5992  161.4824 C.3     1  UNL1        0.1414
      7 N         138.7423  140.8076  161.4337 N.am    1  UNL1       -0.2660
      8 C         138.2897  141.6171  162.6124 C.2     1  UNL1        0.2525
      9 O         137.3981  142.8060  162.4080 O.2     1  UNL1       -0.2698
     10 C         138.3869  141.0640  159.9991 C.3     1  UNL1        0.1236
     11 C         143.7391  135.3860  155.4756 C.3     1  UNL1        0.0521
     12 C         142.3898  136.0412  155.4617 C.ar    1  UNL1        0.0609
     13 C         141.9371  136.8509  156.6405 C.ar    1  UNL1        0.0339
     14 C         140.5879  137.5062  156.6267 C.ar    1  UNL1        0.0855
     15 C         139.6913  137.3518  155.4341 C.ar    1  UNL1        0.0398
     16 C         140.1441  136.5421  154.2553 C.ar    1  UNL1        0.1000
     17 N         141.4933  135.8868  154.2691 N.ar    1  UNL1       -0.2480
     18 C         138.7286  141.2380  163.9957 C.ar    1  UNL1        0.0881
     19 C         138.0062  140.1553  164.7414 C.ar    1  UNL1        0.0178
     20 C         138.4452  139.7761  166.1248 C.ar    1  UNL1        0.0688
     21 C         139.6064  140.4795  166.7624 C.ar    1  UNL1        0.0134
     22 C         140.3288  141.5622  166.0168 C.ar    1  UNL1        0.0377
     23 C         139.8899  141.9414  164.6335 C.ar    1  UNL1        0.1427
     24 C         137.7227  138.6934  166.8704 C.1     1  UNL1        0.1004
     25 N         137.0003  137.6106  167.6158 N.1     1  UNL1       -0.1908
     26 O         140.6122  143.0241  163.8878 O.3     1  UNL1       -0.4790
     27 C         140.1009  144.4336  163.9303 C.3     1  UNL1        0.1661
     28 C         139.0385  144.8166  164.9175 C.3     1  UNL1        0.0472
     29 C         140.6520  145.4601  162.9855 C.3     1  UNL1        0.0472
@<TRIPOS>BOND
     1    11    12    1
     2    12    13   ar
     3    13    14   ar
     4    14     1    1
     5     1     2   ar
     6     2     3   ar
     7     3     4   ar
     8     4     5   ar
     9     4     6    1
    10     6     7    1
    11     7     8   am
    12     8     9    2
    13     8    18    1
    14    18    19   ar
    15    19    20   ar
    16    20    24    1
    17    24    25    3
    18    20    21   ar
    19    21    22   ar
    20    22    23   ar
    21    23    26    1
    22    26    27    1
    23    27    28    1
    24    27    29    1
    25     7    10    1
    26    14    15   ar
    27    15    16   ar
    28    16    17   ar
    29    17    12   ar
    30     5     1   ar
    31    23    18   ar
    32    10     3    1
@<TRIPOS>MOLECULE
*****
 29 32 0 0 0
SMALL
GASTEIGER

@<TRIPOS>ATOM
      1 N         140.6275  143.9122  160.1929 N.ar    1  UNL1       -0.2286
      2 C         141.9817  144.2588  160.7370 C.ar    1  UNL1        0.0990
      3 C         142.0605  143.7467  162.1447 C.ar    1  UNL1        0.0338
      4 C         140.7550  143.0836  162.4705 C.ar    1  UNL1        0.0981
      5 N         139.8694  143.1860  161.2642 N.ar    1  UNL1       -0.1680
      6 C         140.8338  142.5715  163.8782 C.3     1  UNL1        0.1414
      7 N         142.1881  142.9181  164.4224 N.am    1  UNL1       -0.2660
      8 C         142.6951  142.5950  165.7965 C.2     1  UNL1        0.2525
      9 O         144.0793  143.0077  166.2015 O.2     1  UNL1       -0.2698
     10 C         142.9461  143.6443  163.3510 C.3     1  UNL1        0.1236
     11 C         137.9940  142.5374  155.9297 C.3     1  UNL1        0.0521
     12 C         138.8036  143.5478  156.6870 C.ar    1  UNL1        0.0609
     13 C         139.3107  143.2249  158.0613 C.ar    1  UNL1        0.0339
     14 C         140.1204  144.2353  158.8186 C.ar    1  UNL1        0.0855
     15 C         140.4229  145.5686  158.2018 C.ar    1  UNL1        0.0398
     16 C         139.9158  145.8916  156.8275 C.ar    1  UNL1        0.1000
     17 N         139.1061  144.8812  156.0701 N.ar    1  UNL1       -0.2480
     18 C         141.8181  141.8593  166.7659 C.ar    1  UNL1        0.0881
     19 C         141.2421  142.5773  167.9502 C.ar    1  UNL1        0.0178
     20 C         140.3651  141.8416  168.9196 C.ar    1  UNL1        0.0688
     21 C         140.0641  140.3880  168.7046 C.ar    1  UNL1        0.0134
     22 C         140.6401  139.6699  167.5202 C.ar    1  UNL1        0.0377
     23 C         141.5171  140.4056  166.5509 C.ar    1  UNL1        0.1427
     24 C         139.7892  142.5597  170.1040 C.1     1  UNL1        0.1004
     25 N         139.2133  143.2776  171.2884 N.1     1  UNL1       -0.1908
     26 O         142.0930  139.6877  165.3665 O.3     1  UNL1       -0.4790
     27 C         143.4750  139.1089  165.4396 C.3     1  UNL1        0.1661
     28 C         143.8050  138.0851  166.4850 C.3     1  UNL1        0.0472
     29 C         144.5268  139.5539  164.4672 C.3     1  UNL1        0.0472
@<TRIPOS>BOND
     1    11    12    1
     2    12    13   ar
     3    13    14   ar
     4    14     1    1
     5     1     2   ar
     6     2     3   ar
     7     3     4   ar
     8     4     5   ar
     9     4     6    1
    10     6     7    1
    11     7     8   am
    12     8     9    2
    13     8    18    1
    14    18    19   ar
    15    19    20   ar
    16    20    24    1
    17    24    25    3
    18    20    21   ar
    19    21    22   ar
    20    22    23   ar
    21    23    26    1
    22    26    27    1
    23    27    28    1
    24    27    29    1
    25     7    10    1
    26    14    15   ar
    27    15    16   ar
    28    16    17   ar
    29    17    12   ar
    30     5     1   ar
    31    23    18   ar
    32    10     3    1
@<TRIPOS>MOLECULE
*****
 29 32 0 0 0
SMALL
GASTEIGER

@<TRIPOS>ATOM
      1 N         139.0419  142.2292  160.0987 N.ar    1  UNL1       -0.2286
      2 C         138.2705  141.0409  160.5915 C.ar    1  UNL1        0.0990
      3 C         138.6975  140.7638  162.0025 C.ar    1  UNL1        0.0338
      4 C         139.7327  141.7808  162.3817 C.ar    1  UNL1        0.0981
      5 N         139.9456  142.6865  161.2051 N.ar    1  UNL1       -0.1680
      6 C         140.1597  141.5037  163.7927 C.3     1  UNL1        0.1414
      7 N         139.3883  140.3153  164.2856 N.am    1  UNL1       -0.2660
      8 C         139.5009  139.6935  165.6459 C.2     1  UNL1        0.2525
      9 O         138.6606  138.5017  165.9977 O.2     1  UNL1       -0.2698
     10 C         138.4846  139.8581  163.1791 C.3     1  UNL1        0.1236
     11 C         140.6342  145.7316  156.6062 C.3     1  UNL1        0.0521
     12 C         139.7255  144.6023  156.9921 C.ar    1  UNL1        0.0609
     13 C         139.8380  143.9804  158.3524 C.ar    1  UNL1        0.0339
     14 C         138.9293  142.8511  158.7383 C.ar    1  UNL1        0.0855
     15 C         137.9081  142.3436  157.7639 C.ar    1  UNL1        0.0398
     16 C         137.7956  142.9656  156.4035 C.ar    1  UNL1        0.1000
     17 N         138.7043  144.0949  156.0176 N.ar    1  UNL1       -0.2480
     18 C         140.4537  140.2633  166.6545 C.ar    1  UNL1        0.0881
     19 C         140.0459  141.4403  167.4902 C.ar    1  UNL1        0.0178
     20 C         140.9987  142.0102  168.4989 C.ar    1  UNL1        0.0688
     21 C         142.3594  141.4031  168.6719 C.ar    1  UNL1        0.0134
     22 C         142.7673  140.2261  167.8362 C.ar    1  UNL1        0.0377
     23 C         141.8145  139.6563  166.8275 C.ar    1  UNL1        0.1427
     24 C         140.5907  143.1872  169.3345 C.1     1  UNL1        0.1004
     25 N         140.1829  144.3642  170.1702 N.1     1  UNL1       -0.1908
     26 O         142.2223  138.4793  165.9918 O.3     1  UNL1       -0.4790
     27 C         142.9104  138.6957  164.6767 C.3     1  UNL1        0.1661
     28 C         144.2574  139.3544  164.6344 C.3     1  UNL1        0.0472
     29 C         142.2516  138.2534  163.4038 C.3     1  UNL1        0.0472
@<TRIPOS>BOND
     1    11    12    1
     2    12    13   ar
     3    13    14   ar
     4    14     1    1
     5     1     2   ar
     6     2     3   ar
     7     3     4   ar
     8     4     5   ar
     9     4     6    1
    10     6     7    1
    11     7     8   am
    12     8     9    2
    13     8    18    1
    14    18    19   ar
    15    19    20   ar
    16    20    24    1
    17    24    25    3
    18    20    21   ar
    19    21    22   ar
    20    22    23   ar
    21    23    26    1
    22    26    27    1
    23    27    28    1
    24    27    29    1
    25     7    10    1
    26    14    15   ar
    27    15    16   ar
    28    16    17   ar
    29    17    12   ar
    30     5     1   ar
    31    23    18   ar
    32    10     3    1
@<TRIPOS>MOLECULE
*****
 29 32 0 0 0
SMALL
GASTEIGER

@<TRIPOS>ATOM
      1 N         142.4091  139.9997  158.2765 N.ar    1  UNL1       -0.2286
      2 C         141.1354  140.7775  158.1256 C.ar    1  UNL1        0.0990
      3 C         140.5263  140.9377  159.4870 C.ar    1  UNL1        0.0338
      4 C         141.4235  140.2590  160.4792 C.ar    1  UNL1        0.0981
      5 N         142.5872  139.6793  159.7310 N.ar    1  UNL1       -0.1680
      6 C         140.8143  140.4193  161.8405 C.3     1  UNL1        0.1414
      7 N         139.5405  141.1970  161.6897 N.am    1  UNL1       -0.2660
      8 C         138.6085  141.5861  162.7986 C.2     1  UNL1        0.2525
      9 O         137.3654  142.3684  162.4940 O.2     1  UNL1       -0.2698
     10 C         139.3626  141.5174  160.2351 C.3     1  UNL1        0.1236
     11 C         146.5096  141.0574  155.2652 C.3     1  UNL1        0.0521
     12 C         145.3915  140.1395  155.6618 C.ar    1  UNL1        0.0609
     13 C         144.4593  140.5285  156.7708 C.ar    1  UNL1        0.0339
     14 C         143.3412  139.6107  157.1675 C.ar    1  UNL1        0.0855
     15 C         143.1552  138.3038  156.4551 C.ar    1  UNL1        0.0398
     16 C         144.0873  137.9148  155.3461 C.ar    1  UNL1        0.1000
     17 N         145.2055  138.8327  154.9495 N.ar    1  UNL1       -0.2480
     18 C         138.9195  141.1928  164.2124 C.ar    1  UNL1        0.0881
     19 C         138.1536  140.0819  164.8676 C.ar    1  UNL1        0.0178
     20 C         138.4646  139.6887  166.2814 C.ar    1  UNL1        0.0688
     21 C         139.5414  140.4063  167.0399 C.ar    1  UNL1        0.0134
     22 C         140.3073  141.5173  166.3847 C.ar    1  UNL1        0.0377
     23 C         139.9963  141.9105  164.9710 C.ar    1  UNL1        0.1427
     24 C         137.6987  138.5777  166.9365 C.1     1  UNL1        0.1004
     25 N         136.9327  137.4668  167.5915 N.1     1  UNL1       -0.1908
     26 O         140.7622  143.0214  164.3158 O.3     1  UNL1       -0.4790
     27 C         140.1425  144.3806  164.1789 C.3     1  UNL1        0.1661
     28 C         140.6795  145.3515  163.1695 C.3     1  UNL1        0.0472
     29 C         138.9858  144.7688  165.0515 C.3     1  UNL1        0.0472
@<TRIPOS>BOND
     1    11    12    1
     2    12    13   ar
     3    13    14   ar
     4    14     1    1
     5     1     2   ar
     6     2     3   ar
     7     3     4   ar
     8     4     5   ar
     9     4     6    1
    10     6     7    1
    11     7     8   am
    12     8     9    2
    13     8    18    1
    14    18    19   ar
    15    19    20   ar
    16    20    24    1
    17    24    25    3
    18    20    21   ar
    19    21    22   ar
    20    22    23   ar
    21    23    26    1
    22    26    27    1
    23    27    28    1
    24    27    29    1
    25     7    10    1
    26    14    15   ar
    27    15    16   ar
    28    16    17   ar
    29    17    12   ar
    30     5     1   ar
    31    23    18   ar
    32    10     3    1
@<TRIPOS>MOLECULE
*****
 29 32 0 0 0
SMALL
GASTEIGER

@<TRIPOS>ATOM
      1 N         141.1860  143.1967  160.4376 N.ar    1  UNL1       -0.2286
      2 C         142.2315  142.1287  160.5651 C.ar    1  UNL1        0.0990
      3 C         142.2888  141.7054  162.0029 C.ar    1  UNL1        0.0338
      4 C         141.2786  142.5117  162.7642 C.ar    1  UNL1        0.0981
      5 N         140.5970  143.4334  161.7967 N.ar    1  UNL1       -0.1680
      6 C         141.3359  142.0883  164.2020 C.3     1  UNL1        0.1414
      7 N         142.3815  141.0203  164.3295 N.am    1  UNL1       -0.2660
      8 C         142.7699  140.3132  165.5940 C.2     1  UNL1        0.2525
      9 O         143.8390  139.2613  165.5671 O.2     1  UNL1       -0.2698
     10 C         142.9704  140.7837  162.9704 C.3     1  UNL1        0.1236
     11 C         138.3227  143.4261  156.1076 C.3     1  UNL1        0.0521
     12 C         139.3658  144.0185  157.0080 C.ar    1  UNL1        0.0609
     13 C         139.7544  143.3114  158.2726 C.ar    1  UNL1        0.0339
     14 C         140.7975  143.9038  159.1731 C.ar    1  UNL1        0.0855
     15 C         141.4522  145.2034  158.8091 C.ar    1  UNL1        0.0398
     16 C         141.0637  145.9105  157.5445 C.ar    1  UNL1        0.1000
     17 N         140.0205  145.3181  156.6440 N.ar    1  UNL1       -0.2480
     18 C         142.0893  140.6579  166.8855 C.ar    1  UNL1        0.0881
     19 C         142.7323  141.6217  167.8382 C.ar    1  UNL1        0.0178
     20 C         142.0517  141.9664  169.1298 C.ar    1  UNL1        0.0688
     21 C         140.7282  141.3474  169.4686 C.ar    1  UNL1        0.0134
     22 C         140.0851  140.3836  168.5159 C.ar    1  UNL1        0.0377
     23 C         140.7657  140.0389  167.2244 C.ar    1  UNL1        0.1427
     24 C         142.6949  142.9303  170.0823 C.1     1  UNL1        0.1004
     25 N         143.3381  143.8940  171.0349 N.1     1  UNL1       -0.1908
     26 O         140.1226  139.0751  166.2717 O.3     1  UNL1       -0.4790
     27 C         138.6476  139.1508  166.0098 C.3     1  UNL1        0.1661
     28 C         137.7064  138.2516  166.7550 C.3     1  UNL1        0.0472
     29 C         138.1139  140.1259  165.0026 C.3     1  UNL1        0.0472
@<TRIPOS>BOND
     1    11    12    1
     2    12    13   ar
     3    13    14   ar
     4    14     1    1
     5     1     2   ar
     6     2     3   ar
     7     3     4   ar
     8     4     5   ar
     9     4     6    1
    10     6     7    1
    11     7     8   am
    12     8     9    2
    13     8    18    1
    14    18    19   ar
    15    19    20   ar
    16    20    24    1
    17    24    25    3
    18    20    21   ar
    19    21    22   ar
    20    22    23   ar
    21    23    26    1
    22    26    27    1
    23    27    28    1
    24    27    29    1
    25     7    10    1
    26    14    15   ar
    27    15    16   ar
    28    16    17   ar
    29    17    12   ar
    30     5     1   ar
    31    23    18   ar
    32    10     3    1
@<TRIPOS>MOLECULE
*****
 29 32 0 0 0
SMALL
GASTEIGER

@<TRIPOS>ATOM
      1 N         140.6748  141.0919  167.1530 N.ar    1  UNL1       -0.2286
      2 C         139.4607  140.2412  166.9239 C.ar    1  UNL1        0.0990
      3 C         139.3319  140.0052  165.4482 C.ar    1  UNL1        0.0338
      4 C         140.4664  140.7100  164.7652 C.ar    1  UNL1        0.0981
      5 N         141.2963  141.3816  165.8189 N.ar    1  UNL1       -0.1680
      6 C         140.3376  140.4740  163.2895 C.3     1  UNL1        0.1414
      7 N         139.1235  139.6233  163.0604 N.am    1  UNL1       -0.2660
      8 C         138.6194  139.1462  161.7307 C.2     1  UNL1        0.2525
      9 O         137.3849  138.2972  161.6572 O.2     1  UNL1       -0.2698
     10 C         138.5020  139.3336  164.3945 C.3     1  UNL1        0.1236
     11 C         144.5719  142.7837  170.1447 C.3     1  UNL1        0.0521
     12 C         143.1275  142.4150  169.9786 C.ar    1  UNL1        0.0609
     13 C         142.6233  141.9378  168.6489 C.ar    1  UNL1        0.0339
     14 C         141.1789  141.5691  168.4827 C.ar    1  UNL1        0.0855
     15 C         140.2385  141.6775  169.6463 C.ar    1  UNL1        0.0398
     16 C         140.7427  142.1547  170.9760 C.ar    1  UNL1        0.1000
     17 N         142.1871  142.5234  171.1422 N.ar    1  UNL1       -0.2480
     18 C         139.3498  139.5179  160.4744 C.ar    1  UNL1        0.0881
     19 C         140.3565  138.5748  159.8851 C.ar    1  UNL1        0.0178
     20 C         141.0869  138.9466  158.6288 C.ar    1  UNL1        0.0688
     21 C         140.8107  140.2613  157.9617 C.ar    1  UNL1        0.0134
     22 C         139.8040  141.2045  158.5510 C.ar    1  UNL1        0.0377
     23 C         139.0736  140.8327  159.8073 C.ar    1  UNL1        0.1427
     24 C         142.0936  138.0034  158.0396 C.1     1  UNL1        0.1004
     25 N         143.1001  137.0603  157.4503 N.1     1  UNL1       -0.1908
     26 O         138.0670  141.7758  160.3965 O.3     1  UNL1       -0.4790
     27 C         138.5062  142.8299  161.3692 C.3     1  UNL1        0.1661
     28 C         139.7191  143.6622  161.0761 C.3     1  UNL1        0.0472
     29 C         137.7325  143.0515  162.6350 C.3     1  UNL1        0.0472
@<TRIPOS>BOND
     1    11    12    1
     2    12    13   ar
     3    13    14   ar
     4    14     1    1
     5     1     2   ar
     6     2     3   ar
     7     3     4   ar
     8     4     5   ar
     9     4     6    1
    10     6     7    1
    11     7     8   am
    12     8     9    2
    13     8    18    1
    14    18    19   ar
    15    19    20   ar
    16    20    24    1
    17    24    25    3
    18    20    21   ar
    19    21    22   ar
    20    22    23   ar
    21    23    26    1
    22    26    27    1
    23    27    28    1
    24    27    29    1
    25     7    10    1
    26    14    15   ar
    27    15    16   ar
    28    16    17   ar
    29    17    12   ar
    30     5     1   ar
    31    23    18   ar
    32    10     3    1
@<TRIPOS>MOLECULE
*****
 29 32 0 0 0
SMALL
GASTEIGER

@<TRIPOS>ATOM
      1 N         142.8269  141.6461  159.8031 N.ar    1  UNL1       -0.2286
      2 C         141.5346  142.4075  159.8093 C.ar    1  UNL1        0.0990
      3 C         140.9496  142.3164  161.1875 C.ar    1  UNL1        0.0338
      4 C         141.8804  141.4987  162.0331 C.ar    1  UNL1        0.0981
      5 N         143.0407  141.0844  161.1775 N.ar    1  UNL1       -0.1680
      6 C         141.2954  141.4076  163.4113 C.3     1  UNL1        0.1414
      7 N         140.0030  142.1690  163.4176 N.am    1  UNL1       -0.2660
      8 C         139.0855  142.3389  164.5919 C.2     1  UNL1        0.2525
      9 O         137.8205  143.1320  164.4469 O.2     1  UNL1       -0.2698
     10 C         139.7893  142.7306  162.0432 C.3     1  UNL1        0.1236
     11 C         144.2338  139.0437  155.5313 C.3     1  UNL1        0.0521
     12 C         144.4480  140.1749  156.4928 C.ar    1  UNL1        0.0609
     13 C         143.5304  140.3449  157.6672 C.ar    1  UNL1        0.0339
     14 C         143.7445  141.4761  158.6287 C.ar    1  UNL1        0.0855
     15 C         144.8761  142.4374  158.4158 C.ar    1  UNL1        0.0398
     16 C         145.7936  142.2674  157.2414 C.ar    1  UNL1        0.1000
     17 N         145.5796  141.1362  156.2799 N.ar    1  UNL1       -0.2480
     18 C         139.4328  141.7158  165.9114 C.ar    1  UNL1        0.0881
     19 C         140.2271  142.4905  166.9208 C.ar    1  UNL1        0.0178
     20 C         140.5745  141.8673  168.2404 C.ar    1  UNL1        0.0688
     21 C         140.1275  140.4695  168.5505 C.ar    1  UNL1        0.0134
     22 C         139.3332  139.6947  167.5411 C.ar    1  UNL1        0.0377
     23 C         138.9859  140.3179  166.2216 C.ar    1  UNL1        0.1427
     24 C         141.3688  142.6422  169.2497 C.1     1  UNL1        0.1004
     25 N         142.1630  143.4171  170.2589 N.1     1  UNL1       -0.1908
     26 O         138.1916  139.5431  165.2122 O.3     1  UNL1       -0.4790
     27 C         138.8957  138.7003  164.1905 C.3     1  UNL1        0.1661
     28 C         139.9133  137.6878  164.6258 C.3     1  UNL1        0.0472
     29 C         138.5823  138.8700  162.7334 C.3     1  UNL1        0.0472
@<TRIPOS>BOND
     1    11    12    1
     2    12    13   ar
     3    13    14   ar
     4    14     1    1
     5     1     2   ar
     6     2     3   ar
     7     3     4   ar
     8     4     5   ar
     9     4     6    1
    10     6     7    1
    11     7     8   am
    12     8     9    2
    13     8    18    1
    14    18    19   ar
    15    19    20   ar
    16    20    24    1
    17    24    25    3
    18    20    21   ar
    19    21    22   ar
    20    22    23   ar
    21    23    26    1
    22    26    27    1
    23    27    28    1
    24    27    29    1
    25     7    10    1
    26    14    15   ar
    27    15    16   ar
    28    16    17   ar
    29    17    12   ar
    30     5     1   ar
    31    23    18   ar
    32    10     3    1
@<TRIPOS>MOLECULE
*****
 29 32 0 0 0
SMALL
GASTEIGER

@<TRIPOS>ATOM
      1 N         137.1955  141.4502  157.3109 N.ar    1  UNL1       -0.2286
      2 C         138.0490  142.5409  157.8869 C.ar    1  UNL1        0.0990
      3 C         138.6543  142.0316  159.1613 C.ar    1  UNL1        0.0338
      4 C         138.1749  140.6261  159.3730 C.ar    1  UNL1        0.0981
      5 N         137.2733  140.2668  158.2293 N.ar    1  UNL1       -0.1680
      6 C         138.7802  140.1168  160.6474 C.3     1  UNL1        0.1414
      7 N         139.6338  141.2075  161.2235 N.am    1  UNL1       -0.2660
      8 C         140.4260  141.1287  162.4946 C.2     1  UNL1        0.2525
      9 O         141.2374  142.3064  162.9471 O.2     1  UNL1       -0.2698
     10 C         139.5560  142.3909  160.3050 C.3     1  UNL1        0.1236
     11 C         136.3726  143.5873  152.6466 C.3     1  UNL1        0.0521
     12 C         135.9918  142.5976  153.7074 C.ar    1  UNL1        0.0609
     13 C         136.7840  142.5187  154.9787 C.ar    1  UNL1        0.0339
     14 C         136.4032  141.5290  156.0396 C.ar    1  UNL1        0.0855
     15 C         135.2302  140.6182  155.8293 C.ar    1  UNL1        0.0398
     16 C         134.4379  140.6971  154.5579 C.ar    1  UNL1        0.1000
     17 N         134.8187  141.6868  153.4970 N.ar    1  UNL1       -0.2480
     18 C         140.4070  139.8721  163.3135 C.ar    1  UNL1        0.0881
     19 C         139.3313  139.6602  164.3372 C.ar    1  UNL1        0.0178
     20 C         139.3122  138.4036  165.1562 C.ar    1  UNL1        0.0688
     21 C         140.3688  137.3589  164.9514 C.ar    1  UNL1        0.0134
     22 C         141.4446  137.5707  163.9277 C.ar    1  UNL1        0.0377
     23 C         141.4637  138.8273  163.1088 C.ar    1  UNL1        0.1427
     24 C         138.2364  138.1919  166.1798 C.1     1  UNL1        0.1004
     25 N         137.1605  137.9802  167.2033 N.1     1  UNL1       -0.1908
     26 O         142.5394  139.0391  162.0852 O.3     1  UNL1       -0.4790
     27 C         143.7846  139.7916  162.4504 C.3     1  UNL1        0.1661
     28 C         144.5055  139.4742  163.7269 C.3     1  UNL1        0.0472
     29 C         144.3087  140.8615  161.5391 C.3     1  UNL1        0.0472
@<TRIPOS>BOND
     1    11    12    1
     2    12    13   ar
     3    13    14   ar
     4    14     1    1
     5     1     2   ar
     6     2     3   ar
     7     3     4   ar
     8     4     5   ar
     9     4     6    1
    10     6     7    1
    11     7     8   am
    12     8     9    2
    13     8    18    1
    14    18    19   ar
    15    19    20   ar
    16    20    24    1
    17    24    25    3
    18    20    21   ar
    19    21    22   ar
    20    22    23   ar
    21    23    26    1
    22    26    27    1
    23    27    28    1
    24    27    29    1
    25     7    10    1
    26    14    15   ar
    27    15    16   ar
    28    16    17   ar
    29    17    12   ar
    30     5     1   ar
    31    23    18   ar
    32    10     3    1
