@<TRIPOS>MOLECULE
*****
 33 37 0 0 0
SMALL
GASTEIGER

@<TRIPOS>ATOM
      1 C         144.2664  141.0185  158.4581 C.ar    1  UNL1        0.1317
      2 C         143.5602  142.1669  159.1157 C.ar    1  UNL1        0.0346
      3 C         142.6981  141.9269  160.3196 C.ar    1  UNL1        0.0121
      4 C         142.5423  140.5386  160.8658 C.ar    1  UNL1        0.1076
      5 C         143.2485  139.3902  160.2081 C.ar    1  UNL1        0.1080
      6 N         144.1106  139.6302  159.0043 N.ar    1  UNL1       -0.2289
      7 C         148.5266  142.6661  153.3540 C.3     1  UNL1        0.0375
      8 C         147.8317  141.5488  152.6337 C.3     1  UNL1        0.1423
      9 O         146.7970  140.9753  153.5561 O.3     1  UNL1       -0.3584
     10 C         146.8525  141.7382  154.8465 C.3     1  UNL1        0.0961
     11 C         145.8197  140.6507  154.8246 C.3     1  UNL1        0.0487
     12 C         144.9577  140.4108  156.0285 C.3     1  UNL1        0.0946
     13 N         145.1285  141.2584  157.2542 N.pl3   1  UNL1       -0.2931
     14 C         146.1613  142.3460  157.2760 C.3     1  UNL1        0.0946
     15 C         147.0233  142.5858  156.0722 C.3     1  UNL1        0.0487
     16 C         147.9215  142.7831  154.7215 C.3     1  UNL1        0.0302
     17 C         149.6325  143.5168  152.8034 C.3     1  UNL1        0.0443
     18 O         151.3911  142.1897  154.1803 O.co2   1  UNL1       -0.5492
     19 C         151.0243  143.3809  153.3458 C.2     1  UNL1        0.0504
     20 O         152.0495  144.4362  153.0537 O.co2   1  UNL1       -0.5492
     21 C         141.6802  140.2986  162.0696 C.2     1  UNL1        0.3767
     22 N         140.9928  139.0122  162.4195 N.2     1  UNL1       -0.0308
     23 C         140.2419  139.2214  163.7011 C.2     1  UNL1        0.2320
     24 C         139.3837  138.3057  164.5225 C.2     1  UNL1        0.0537
     25 C         138.7488  138.8058  165.7862 C.2     1  UNL1        0.0714
     26 C         138.9722  140.2216  166.2284 C.2     1  UNL1       -0.0133
     27 C         139.8305  141.1373  165.4070 C.3     1  UNL1        0.1037
     28 C         140.4654  140.6373  164.1433 C.2     1  UNL1        0.2178
     29 N         141.3543  141.3030  163.1350 N.2     1  UNL1       -0.0347
     30 C         137.8905  137.8901  166.6077 C.3     1  UNL1        0.4184
     31 F         137.0322  136.9743  167.4291 F       1  UNL1       -0.1659
     32 F         137.5282  139.0354  167.5059 F       1  UNL1       -0.1659
     33 F         138.2529  136.7447  165.7094 F       1  UNL1       -0.1659
@<TRIPOS>UNITY_ATOM_ATTR
18 1
charge -1
@<TRIPOS>BOND
     1    18    19   ar
     2    19    20   ar
     3    19    17    1
     4    17     7    1
     5     7     8    1
     6     8     9    1
     7     9    10    1
     8    10    11    1
     9    11    12    1
    10    12    13    1
    11    13     1    1
    12     1     2   ar
    13     2     3   ar
    14     3     4   ar
    15     4    21    1
    16    21    22    2
    17    22    23    1
    18    23    24    2
    19    24    25    1
    20    25    30    1
    21    30    31    1
    22    30    32    1
    23    30    33    1
    24    25    26    2
    25    26    27    1
    26    27    28    1
    27    28    29    2
    28     4     5   ar
    29     5     6   ar
    30    13    14    1
    31    14    15    1
    32    10    16    1
    33    16     7    1
    34    15    10    1
    35     6     1   ar
    36    29    21    1
    37    28    23    1
@<TRIPOS>MOLECULE
*****
 33 37 0 0 0
SMALL
GASTEIGER

@<TRIPOS>ATOM
      1 C         139.8549  144.8587  158.1821 C.ar    1  UNL1        0.1317
      2 C         139.4112  143.4285  158.0948 C.ar    1  UNL1        0.0346
      3 C         139.2559  142.6138  159.3447 C.ar    1  UNL1        0.0121
      4 C         139.5442  143.2293  160.6818 C.ar    1  UNL1        0.1076
      5 C         139.9879  144.6595  160.7691 C.ar    1  UNL1        0.1080
      6 N         140.1433  145.4742  159.5193 N.ar    1  UNL1       -0.2289
      7 C         140.0696  149.0580  152.7751 C.3     1  UNL1        0.0375
      8 C         141.0505  148.0553  152.2434 C.3     1  UNL1        0.1423
      9 O         141.2058  146.9705  153.2678 O.3     1  UNL1       -0.3584
     10 C         140.3210  147.3028  154.4326 C.3     1  UNL1        0.0961
     11 C         141.0927  146.0272  154.5970 C.3     1  UNL1        0.0487
     12 C         140.9373  145.2125  155.8469 C.3     1  UNL1        0.0946
     13 N         140.0102  145.6735  156.9322 N.pl3   1  UNL1       -0.2931
     14 C         139.2386  146.9492  156.7678 C.3     1  UNL1        0.0946
     15 C         139.3939  147.7638  155.5180 C.3     1  UNL1        0.0487
     16 C         139.6188  148.5930  154.1281 C.3     1  UNL1        0.0302
     17 C         139.6189  150.3064  152.0765 C.3     1  UNL1        0.0443
     18 O         140.9491  152.0543  153.4640 O.co2   1  UNL1       -0.5492
     19 C         139.6816  151.6268  152.7854 C.2     1  UNL1        0.0504
     20 O         138.4768  152.5198  152.8157 O.co2   1  UNL1       -0.5492
     21 C         139.3889  142.4146  161.9316 C.2     1  UNL1        0.3767
     22 N         138.7060  141.0833  162.0371 N.2     1  UNL1       -0.0308
     23 C         138.7842  140.6340  163.4661 C.2     1  UNL1        0.2320
     24 C         138.2840  139.4016  164.1596 C.2     1  UNL1        0.0537
     25 C         138.5152  139.2229  165.6309 C.2     1  UNL1        0.0714
     26 C         139.2465  140.2766  166.4086 C.2     1  UNL1       -0.0133
     27 C         139.7466  141.5091  165.7151 C.3     1  UNL1        0.1037
     28 C         139.5155  141.6878  164.2439 C.2     1  UNL1        0.2178
     29 N         139.8892  142.7882  163.2955 N.2     1  UNL1       -0.0347
     30 C         138.0150  137.9905  166.3245 C.3     1  UNL1        0.4184
     31 F         137.5148  136.7581  167.0180 F       1  UNL1       -0.1659
     32 F         138.7118  137.1356  165.3078 F       1  UNL1       -0.1659
     33 F         137.3183  138.8454  167.3412 F       1  UNL1       -0.1659
@<TRIPOS>UNITY_ATOM_ATTR
18 1
charge -1
@<TRIPOS>BOND
     1    18    19   ar
     2    19    20   ar
     3    19    17    1
     4    17     7    1
     5     7     8    1
     6     8     9    1
     7     9    10    1
     8    10    11    1
     9    11    12    1
    10    12    13    1
    11    13     1    1
    12     1     2   ar
    13     2     3   ar
    14     3     4   ar
    15     4    21    1
    16    21    22    2
    17    22    23    1
    18    23    24    2
    19    24    25    1
    20    25    30    1
    21    30    31    1
    22    30    32    1
    23    30    33    1
    24    25    26    2
    25    26    27    1
    26    27    28    1
    27    28    29    2
    28     4     5   ar
    29     5     6   ar
    30    13    14    1
    31    14    15    1
    32    10    16    1
    33    16     7    1
    34    15    10    1
    35     6     1   ar
    36    29    21    1
    37    28    23    1
@<TRIPOS>MOLECULE
*****
 33 37 0 0 0
SMALL
GASTEIGER

@<TRIPOS>ATOM
      1 C         142.7193  139.3411  162.8494 C.ar    1  UNL1        0.1317
      2 C         143.9806  139.2495  162.0428 C.ar    1  UNL1        0.0346
      3 C         143.9369  138.7211  160.6396 C.ar    1  UNL1        0.0121
      4 C         142.6318  138.2844  160.0430 C.ar    1  UNL1        0.1076
      5 C         141.3704  138.3761  160.8496 C.ar    1  UNL1        0.1080
      6 N         141.4141  138.9044  162.2527 N.ar    1  UNL1       -0.2289
      7 C         142.5931  141.1098  169.4654 C.3     1  UNL1        0.0375
      8 C         143.2423  142.3685  168.9712 C.3     1  UNL1        0.1423
      9 O         143.4014  142.2550  167.4839 O.3     1  UNL1       -0.3584
     10 C         142.8504  140.9261  167.0589 C.3     1  UNL1        0.0961
     11 C         143.3908  141.7520  165.9294 C.3     1  UNL1        0.0487
     12 C         143.3471  141.2237  164.5263 C.3     1  UNL1        0.0946
     13 N         142.7630  139.8694  164.2526 N.pl3   1  UNL1       -0.2931
     14 C         142.2226  139.0435  165.3821 C.3     1  UNL1        0.0946
     15 C         142.2663  139.5719  166.7853 C.3     1  UNL1        0.0487
     16 C         142.3509  140.2184  168.2836 C.3     1  UNL1        0.0302
     17 C         142.2469  140.7974  170.8910 C.3     1  UNL1        0.0443
     18 O         139.8200  139.8761  170.9961 O.co2   1  UNL1       -0.5492
     19 C         140.8288  140.9236  171.3633 C.2     1  UNL1        0.0504
     20 O         140.4196  142.0973  172.2030 O.co2   1  UNL1       -0.5492
     21 C         142.5880  137.7561  158.6398 C.2     1  UNL1        0.3767
     22 N         142.5836  136.3099  158.2420 N.2     1  UNL1       -0.0308
     23 C         142.5338  136.2412  156.7444 C.2     1  UNL1        0.2320
     24 C         142.5091  135.0817  155.7931 C.2     1  UNL1        0.0537
     25 C         142.4580  135.3261  154.3140 C.2     1  UNL1        0.0714
     26 C         142.4317  136.7299  153.7862 C.2     1  UNL1       -0.0133
     27 C         142.4565  137.8894  154.7375 C.3     1  UNL1        0.1037
     28 C         142.5075  137.6450  156.2166 C.2     1  UNL1        0.2178
     29 N         142.5410  138.5813  157.3880 N.2     1  UNL1       -0.0347
     30 C         142.4333  134.1666  153.3627 C.3     1  UNL1        0.4184
     31 F         142.4085  133.0071  152.4113 F       1  UNL1       -0.1659
     32 F         141.8982  135.0623  152.2849 F       1  UNL1       -0.1659
     33 F         142.9684  133.2710  154.4404 F       1  UNL1       -0.1659
@<TRIPOS>UNITY_ATOM_ATTR
18 1
charge -1
@<TRIPOS>BOND
     1    18    19   ar
     2    19    20   ar
     3    19    17    1
     4    17     7    1
     5     7     8    1
     6     8     9    1
     7     9    10    1
     8    10    11    1
     9    11    12    1
    10    12    13    1
    11    13     1    1
    12     1     2   ar
    13     2     3   ar
    14     3     4   ar
    15     4    21    1
    16    21    22    2
    17    22    23    1
    18    23    24    2
    19    24    25    1
    20    25    30    1
    21    30    31    1
    22    30    32    1
    23    30    33    1
    24    25    26    2
    25    26    27    1
    26    27    28    1
    27    28    29    2
    28     4     5   ar
    29     5     6   ar
    30    13    14    1
    31    14    15    1
    32    10    16    1
    33    16     7    1
    34    15    10    1
    35     6     1   ar
    36    29    21    1
    37    28    23    1
@<TRIPOS>MOLECULE
*****
 33 37 0 0 0
SMALL
GASTEIGER

@<TRIPOS>ATOM
      1 C         144.0015  141.4449  160.0734 C.ar    1  UNL1        0.1317
      2 C         144.1136  140.2062  160.9118 C.ar    1  UNL1        0.0346
      3 C         143.6694  140.2275  162.3444 C.ar    1  UNL1        0.0121
      4 C         143.1132  141.4875  162.9385 C.ar    1  UNL1        0.1076
      5 C         143.0011  142.7262  162.1000 C.ar    1  UNL1        0.1080
      6 N         143.4452  142.7049  160.6675 N.ar    1  UNL1       -0.2289
      7 C         146.4139  141.9748  153.6847 C.3     1  UNL1        0.0375
      8 C         145.6210  140.7219  153.4574 C.3     1  UNL1        0.1423
      9 O         144.9536  140.3549  154.7498 O.3     1  UNL1       -0.3584
     10 C         145.3339  141.3811  155.7756 C.3     1  UNL1        0.0961
     11 C         144.4252  140.3067  156.2951 C.3     1  UNL1        0.0487
     12 C         143.9811  140.3280  157.7277 C.3     1  UNL1        0.0946
     13 N         144.4457  141.4237  158.6407 N.pl3   1  UNL1       -0.2931
     14 C         145.3544  142.4980  158.1212 C.3     1  UNL1        0.0946
     15 C         145.7985  142.4767  156.6887 C.3     1  UNL1        0.0487
     16 C         146.2365  142.3822  155.1173 C.3     1  UNL1        0.0302
     17 C         147.2392  142.6940  152.6593 C.3     1  UNL1        0.0443
     18 O         149.5407  143.8124  153.1090 O.co2   1  UNL1       -0.5492
     19 C         148.0441  143.8967  153.0536 C.2     1  UNL1        0.0504
     20 O         147.3525  145.1838  153.3927 O.co2   1  UNL1       -0.5492
     21 C         142.6690  141.5088  164.3710 C.2     1  UNL1        0.3767
     22 N         141.7212  142.4956  164.9857 N.2     1  UNL1       -0.0308
     23 C         141.5610  142.1438  166.4350 C.2     1  UNL1        0.2320
     24 C         140.7520  142.7644  167.5350 C.2     1  UNL1        0.0537
     25 C         140.7917  142.1807  168.9163 C.2     1  UNL1        0.0714
     26 C         141.6405  140.9763  169.1974 C.2     1  UNL1       -0.0133
     27 C         142.4496  140.3557  168.0973 C.3     1  UNL1        0.1037
     28 C         142.4099  140.9394  166.7161 C.2     1  UNL1        0.2178
     29 N         143.0946  140.5470  165.4405 N.2     1  UNL1       -0.0347
     30 C         139.9826  142.8013  170.0164 C.3     1  UNL1        0.4184
     31 F         139.1735  143.4219  171.1164 F       1  UNL1       -0.1659
     32 F         140.7501  144.0804  169.8592 F       1  UNL1       -0.1659
     33 F         139.2151  141.5221  170.1735 F       1  UNL1       -0.1659
@<TRIPOS>UNITY_ATOM_ATTR
18 1
charge -1
@<TRIPOS>BOND
     1    18    19   ar
     2    19    20   ar
     3    19    17    1
     4    17     7    1
     5     7     8    1
     6     8     9    1
     7     9    10    1
     8    10    11    1
     9    11    12    1
    10    12    13    1
    11    13     1    1
    12     1     2   ar
    13     2     3   ar
    14     3     4   ar
    15     4    21    1
    16    21    22    2
    17    22    23    1
    18    23    24    2
    19    24    25    1
    20    25    30    1
    21    30    31    1
    22    30    32    1
    23    30    33    1
    24    25    26    2
    25    26    27    1
    26    27    28    1
    27    28    29    2
    28     4     5   ar
    29     5     6   ar
    30    13    14    1
    31    14    15    1
    32    10    16    1
    33    16     7    1
    34    15    10    1
    35     6     1   ar
    36    29    21    1
    37    28    23    1
@<TRIPOS>MOLECULE
*****
 33 37 0 0 0
SMALL
GASTEIGER

@<TRIPOS>ATOM
      1 C         141.7668  138.5227  160.2991 C.ar    1  UNL1        0.1317
      2 C         140.8157  139.4919  160.9364 C.ar    1  UNL1        0.0346
      3 C         141.0124  139.9067  162.3644 C.ar    1  UNL1        0.0121
      4 C         142.1601  139.3523  163.1552 C.ar    1  UNL1        0.1076
      5 C         143.1112  138.3830  162.5179 C.ar    1  UNL1        0.1080
      6 N         142.9145  137.9683  161.0899 N.ar    1  UNL1       -0.2289
      7 C         141.4394  136.1513  153.8816 C.3     1  UNL1        0.0375
      8 C         140.3092  137.1291  153.7532 C.3     1  UNL1        0.1423
      9 O         140.1469  137.8258  155.0718 O.3     1  UNL1       -0.3584
     10 C         141.1769  137.2785  156.0150 C.3     1  UNL1        0.0961
     11 C         140.2964  138.3327  156.6178 C.3     1  UNL1        0.0487
     12 C         140.4931  138.7474  158.0458 C.3     1  UNL1        0.0946
     13 N         141.5702  138.1080  158.8710 N.pl3   1  UNL1       -0.2931
     14 C         142.4507  137.0538  158.2682 C.3     1  UNL1        0.0946
     15 C         142.2540  136.6390  156.8402 C.3     1  UNL1        0.0487
     16 C         141.9757  136.2436  155.2794 C.3     1  UNL1        0.0302
     17 C         141.9447  135.2410  152.8018 C.3     1  UNL1        0.0443
     18 O         140.8155  132.9722  152.2297 O.co2   1  UNL1       -0.5492
     19 C         141.8579  133.7534  152.9734 C.2     1  UNL1        0.0504
     20 O         142.8135  133.0470  153.8887 O.co2   1  UNL1       -0.5492
     21 C         142.3567  139.7670  164.5832 C.2     1  UNL1        0.3767
     22 N         142.6586  141.1552  165.0646 N.2     1  UNL1       -0.0308
     23 C         142.7745  141.1126  166.5595 C.2     1  UNL1        0.2320
     24 C         143.0600  142.1791  167.5749 C.2     1  UNL1        0.0537
     25 C         143.1151  141.8309  169.0329 C.2     1  UNL1        0.0714
     26 C         142.8848  140.4163  169.4755 C.2     1  UNL1       -0.0133
     27 C         142.5994  139.3498  168.4601 C.3     1  UNL1        0.1037
     28 C         142.5442  139.6979  167.0021 C.2     1  UNL1        0.2178
     29 N         142.2860  138.8664  165.7807 N.2     1  UNL1       -0.0347
     30 C         143.4006  142.8974  170.0484 C.3     1  UNL1        0.4184
     31 F         143.6860  143.9639  171.0638 F       1  UNL1       -0.1659
     32 F         144.8025  142.3840  170.1936 F       1  UNL1       -0.1659
     33 F         141.9987  143.4109  169.9032 F       1  UNL1       -0.1659
@<TRIPOS>UNITY_ATOM_ATTR
18 1
charge -1
@<TRIPOS>BOND
     1    18    19   ar
     2    19    20   ar
     3    19    17    1
     4    17     7    1
     5     7     8    1
     6     8     9    1
     7     9    10    1
     8    10    11    1
     9    11    12    1
    10    12    13    1
    11    13     1    1
    12     1     2   ar
    13     2     3   ar
    14     3     4   ar
    15     4    21    1
    16    21    22    2
    17    22    23    1
    18    23    24    2
    19    24    25    1
    20    25    30    1
    21    30    31    1
    22    30    32    1
    23    30    33    1
    24    25    26    2
    25    26    27    1
    26    27    28    1
    27    28    29    2
    28     4     5   ar
    29     5     6   ar
    30    13    14    1
    31    14    15    1
    32    10    16    1
    33    16     7    1
    34    15    10    1
    35     6     1   ar
    36    29    21    1
    37    28    23    1
@<TRIPOS>MOLECULE
*****
 33 37 0 0 0
SMALL
GASTEIGER

@<TRIPOS>ATOM
      1 C         143.7344  140.9502  159.4405 C.ar    1  UNL1        0.1317
      2 C         142.8457  142.0282  159.9863 C.ar    1  UNL1        0.0346
      3 C         142.1330  141.8241  161.2904 C.ar    1  UNL1        0.0121
      4 C         142.3092  140.5418  162.0486 C.ar    1  UNL1        0.1076
      5 C         143.1981  139.4638  161.5027 C.ar    1  UNL1        0.1080
      6 N         143.9106  139.6680  160.1987 N.ar    1  UNL1       -0.2289
      7 C         147.3274  142.4689  153.8102 C.3     1  UNL1        0.0375
      8 C         146.6100  141.2847  153.2329 C.3     1  UNL1        0.1423
      9 O         145.7106  140.7247  154.2948 O.3     1  UNL1       -0.3584
     10 C         145.8721  141.5626  155.5284 C.3     1  UNL1        0.0961
     11 C         144.8946  140.4351  155.6804 C.3     1  UNL1        0.0487
     12 C         144.1821  140.2310  156.9844 C.3     1  UNL1        0.0946
     13 N         144.4470  141.1544  158.1364 N.pl3   1  UNL1       -0.2931
     14 C         145.4245  142.2819  157.9844 C.3     1  UNL1        0.0946
     15 C         146.1371  142.4860  156.6804 C.3     1  UNL1        0.0487
     16 C         146.8714  142.6406  155.2289 C.3     1  UNL1        0.0302
     17 C         148.3255  143.3300  153.0946 C.3     1  UNL1        0.0443
     18 O         150.7548  144.2461  153.0007 O.co2   1  UNL1       -0.5492
     19 C         149.7922  143.1511  153.3530 C.2     1  UNL1        0.0504
     20 O         150.2963  141.8771  153.9637 O.co2   1  UNL1       -0.5492
     21 C         141.5967  140.3376  163.3526 C.2     1  UNL1        0.3767
     22 N         142.1604  140.6052  164.7167 N.2     1  UNL1       -0.0308
     23 C         141.1074  140.2629  165.7287 C.2     1  UNL1        0.2320
     24 C         141.0976  140.3256  167.2273 C.2     1  UNL1        0.0537
     25 C         139.8732  139.9092  167.9874 C.2     1  UNL1        0.0714
     26 C         138.6588  139.4302  167.2488 C.2     1  UNL1       -0.0133
     27 C         138.6686  139.3675  165.7501 C.3     1  UNL1        0.1037
     28 C         139.8929  139.7839  164.9901 C.2     1  UNL1        0.2178
     29 N         140.1953  139.8301  163.5216 N.2     1  UNL1       -0.0347
     30 C         139.8633  139.9719  169.4860 C.3     1  UNL1        0.4184
     31 F         139.8535  140.0346  170.9847 F       1  UNL1       -0.1659
     32 F         141.3601  139.8736  169.5000 F       1  UNL1       -0.1659
     33 F         138.3666  140.0702  169.4721 F       1  UNL1       -0.1659
@<TRIPOS>UNITY_ATOM_ATTR
18 1
charge -1
@<TRIPOS>BOND
     1    18    19   ar
     2    19    20   ar
     3    19    17    1
     4    17     7    1
     5     7     8    1
     6     8     9    1
     7     9    10    1
     8    10    11    1
     9    11    12    1
    10    12    13    1
    11    13     1    1
    12     1     2   ar
    13     2     3   ar
    14     3     4   ar
    15     4    21    1
    16    21    22    2
    17    22    23    1
    18    23    24    2
    19    24    25    1
    20    25    30    1
    21    30    31    1
    22    30    32    1
    23    30    33    1
    24    25    26    2
    25    26    27    1
    26    27    28    1
    27    28    29    2
    28     4     5   ar
    29     5     6   ar
    30    13    14    1
    31    14    15    1
    32    10    16    1
    33    16     7    1
    34    15    10    1
    35     6     1   ar
    36    29    21    1
    37    28    23    1
@<TRIPOS>MOLECULE
*****
 33 37 0 0 0
SMALL
GASTEIGER

@<TRIPOS>ATOM
      1 C         141.4002  138.6395  160.1354 C.ar    1  UNL1        0.1317
      2 C         142.4692  138.2110  161.0964 C.ar    1  UNL1        0.0346
      3 C         142.4752  138.7446  162.4983 C.ar    1  UNL1        0.0121
      4 C         141.4121  139.7066  162.9392 C.ar    1  UNL1        0.1076
      5 C         140.3430  140.1351  161.9781 C.ar    1  UNL1        0.1080
      6 N         140.3371  139.6016  160.5763 N.ar    1  UNL1       -0.2289
      7 C         140.6371  136.3541  153.7236 C.3     1  UNL1        0.0375
      8 C         142.1090  136.0816  153.8211 C.3     1  UNL1        0.1423
      9 O         142.5695  136.5048  155.1845 O.3     1  UNL1       -0.3584
     10 C         141.3823  137.0389  155.9297 C.3     1  UNL1        0.0961
     11 C         142.6599  137.0697  156.7150 C.3     1  UNL1        0.0487
     12 C         142.6658  137.6032  158.1169 C.3     1  UNL1        0.0946
     13 N         141.3942  138.1060  158.7334 N.pl3   1  UNL1       -0.2931
     14 C         140.1166  138.0752  157.9481 C.3     1  UNL1        0.0946
     15 C         140.1106  137.5416  156.5463 C.3     1  UNL1        0.0487
     16 C         140.1880  136.9457  155.0268 C.3     1  UNL1        0.0302
     17 C         139.7672  136.0826  152.5323 C.3     1  UNL1        0.0443
     18 O         138.6786  138.4058  152.1231 O.co2   1  UNL1       -0.5492
     19 C         138.5475  136.9207  152.2877 C.2     1  UNL1        0.0504
     20 O         137.1966  136.2736  152.2077 O.co2   1  UNL1       -0.5492
     21 C         141.4181  140.2402  164.3410 C.2     1  UNL1        0.3767
     22 N         142.5466  140.9774  164.9990 N.2     1  UNL1       -0.0308
     23 C         142.1225  141.3230  166.3957 C.2     1  UNL1        0.2320
     24 C         142.8230  142.0469  167.5071 C.2     1  UNL1        0.0537
     25 C         142.1328  142.2472  168.8239 C.2     1  UNL1        0.0714
     26 C         140.7423  141.7236  169.0290 C.2     1  UNL1       -0.0133
     27 C         140.0418  140.9997  167.9176 C.3     1  UNL1        0.1037
     28 C         140.7319  140.7994  166.6009 C.2     1  UNL1        0.2178
     29 N         140.2965  140.1302  165.3311 N.2     1  UNL1       -0.0347
     30 C         142.8333  142.9711  169.9353 C.3     1  UNL1        0.4184
     31 F         143.5338  143.6950  171.0468 F       1  UNL1       -0.1659
     32 F         141.6143  143.8179  170.1520 F       1  UNL1       -0.1659
     33 F         144.0523  142.1242  169.7186 F       1  UNL1       -0.1659
@<TRIPOS>UNITY_ATOM_ATTR
18 1
charge -1
@<TRIPOS>BOND
     1    18    19   ar
     2    19    20   ar
     3    19    17    1
     4    17     7    1
     5     7     8    1
     6     8     9    1
     7     9    10    1
     8    10    11    1
     9    11    12    1
    10    12    13    1
    11    13     1    1
    12     1     2   ar
    13     2     3   ar
    14     3     4   ar
    15     4    21    1
    16    21    22    2
    17    22    23    1
    18    23    24    2
    19    24    25    1
    20    25    30    1
    21    30    31    1
    22    30    32    1
    23    30    33    1
    24    25    26    2
    25    26    27    1
    26    27    28    1
    27    28    29    2
    28     4     5   ar
    29     5     6   ar
    30    13    14    1
    31    14    15    1
    32    10    16    1
    33    16     7    1
    34    15    10    1
    35     6     1   ar
    36    29    21    1
    37    28    23    1
@<TRIPOS>MOLECULE
*****
 33 37 0 0 0
SMALL
GASTEIGER

@<TRIPOS>ATOM
      1 C         141.2607  137.3321  156.9347 C.ar    1  UNL1        0.1317
      2 C         142.3873  138.0267  157.6404 C.ar    1  UNL1        0.0346
      3 C         142.1032  139.1928  158.5403 C.ar    1  UNL1        0.0121
      4 C         140.6925  139.6641  158.7344 C.ar    1  UNL1        0.1076
      5 C         139.5658  138.9694  158.0286 C.ar    1  UNL1        0.1080
      6 N         139.8499  137.8034  157.1288 N.ar    1  UNL1       -0.2289
      7 C         143.0123  131.7537  153.3670 C.3     1  UNL1        0.0375
      8 C         142.0877  132.3259  152.3336 C.3     1  UNL1        0.1423
      9 O         141.5318  133.6117  152.8702 O.3     1  UNL1       -0.3584
     10 C         142.1128  133.8341  154.2351 C.3     1  UNL1        0.0961
     11 C         141.1701  134.9126  153.7901 C.3     1  UNL1        0.0487
     12 C         140.8861  136.0786  154.6900 C.3     1  UNL1        0.0946
     13 N         141.5448  136.1660  156.0348 N.pl3   1  UNL1       -0.2931
     14 C         142.4875  135.0875  156.4798 C.3     1  UNL1        0.0946
     15 C         142.7715  133.9215  155.5799 C.3     1  UNL1        0.0487
     16 C         143.0278  132.6857  154.5421 C.3     1  UNL1        0.0302
     17 C         143.7855  130.4741  153.2463 C.3     1  UNL1        0.0443
     18 O         143.1935  128.4051  154.7019 O.co2   1  UNL1       -0.5492
     19 C         144.0286  129.6274  154.4604 C.2     1  UNL1        0.0504
     20 O         145.1070  130.0030  155.4330 O.co2   1  UNL1       -0.5492
     21 C         140.4084  140.8301  159.6342 C.2     1  UNL1        0.3767
     22 N         139.9510  140.7520  161.0607 N.2     1  UNL1       -0.0308
     23 C         139.7917  142.1525  161.5737 C.2     1  UNL1        0.2320
     24 C         139.3662  142.6905  162.9077 C.2     1  UNL1        0.0537
     25 C         139.2996  144.1721  163.1323 C.2     1  UNL1        0.0714
     26 C         139.6585  145.1157  162.0229 C.2     1  UNL1       -0.0133
     27 C         140.0841  144.5778  160.6889 C.3     1  UNL1        0.1037
     28 C         140.1506  143.0962  160.4643 C.2     1  UNL1        0.2178
     29 N         140.5318  142.2789  159.2657 N.2     1  UNL1       -0.0347
     30 C         138.8741  144.7101  164.4662 C.3     1  UNL1        0.4184
     31 F         138.4485  145.2480  165.8002 F       1  UNL1       -0.1659
     32 F         137.4562  144.3190  164.1717 F       1  UNL1       -0.1659
     33 F         140.2919  145.1012  164.7608 F       1  UNL1       -0.1659
@<TRIPOS>UNITY_ATOM_ATTR
18 1
charge -1
@<TRIPOS>BOND
     1    18    19   ar
     2    19    20   ar
     3    19    17    1
     4    17     7    1
     5     7     8    1
     6     8     9    1
     7     9    10    1
     8    10    11    1
     9    11    12    1
    10    12    13    1
    11    13     1    1
    12     1     2   ar
    13     2     3   ar
    14     3     4   ar
    15     4    21    1
    16    21    22    2
    17    22    23    1
    18    23    24    2
    19    24    25    1
    20    25    30    1
    21    30    31    1
    22    30    32    1
    23    30    33    1
    24    25    26    2
    25    26    27    1
    26    27    28    1
    27    28    29    2
    28     4     5   ar
    29     5     6   ar
    30    13    14    1
    31    14    15    1
    32    10    16    1
    33    16     7    1
    34    15    10    1
    35     6     1   ar
    36    29    21    1
    37    28    23    1
@<TRIPOS>MOLECULE
*****
 33 37 0 0 0
SMALL
GASTEIGER

@<TRIPOS>ATOM
      1 C         141.7005  138.9612  155.3445 C.ar    1  UNL1        0.1317
      2 C         140.2777  139.4361  155.3605 C.ar    1  UNL1        0.0346
      3 C         139.9739  140.8993  155.2305 C.ar    1  UNL1        0.0121
      4 C         141.0929  141.8875  155.0846 C.ar    1  UNL1        0.1076
      5 C         142.5157  141.4126  155.0686 C.ar    1  UNL1        0.1080
      6 N         142.8194  139.9494  155.1985 N.ar    1  UNL1       -0.2289
      7 C         143.8000  132.4814  156.0654 C.3     1  UNL1        0.0375
      8 C         142.3587  132.1588  155.8030 C.3     1  UNL1        0.1423
      9 O         141.6244  133.4508  155.5983 O.3     1  UNL1       -0.3584
     10 C         142.6118  134.5717  155.7342 C.3     1  UNL1        0.0961
     11 C         141.2118  135.0240  155.4420 C.3     1  UNL1        0.0487
     12 C         140.9081  136.4871  155.3121 C.3     1  UNL1        0.0946
     13 N         142.0043  137.4980  155.4744 N.pl3   1  UNL1       -0.2931
     14 C         143.4043  137.0458  155.7666 C.3     1  UNL1        0.0946
     15 C         143.7081  135.5826  155.8966 C.3     1  UNL1        0.0487
     16 C         143.9564  133.9726  156.0230 C.3     1  UNL1        0.0302
     17 C         144.8928  131.4873  156.3248 C.3     1  UNL1        0.0443
     18 O         144.3918  130.0468  158.4280 O.co2   1  UNL1       -0.5492
     19 C         144.5679  130.1597  156.9427 C.2     1  UNL1        0.0504
     20 O         144.4192  128.9450  156.0753 O.co2   1  UNL1       -0.5492
     21 C         140.7891  143.3507  154.9546 C.2     1  UNL1        0.3767
     22 N         139.9217  144.1562  155.8759 N.2     1  UNL1       -0.0308
     23 C         139.8959  145.5686  155.3713 C.2     1  UNL1        0.2320
     24 C         139.2071  146.8021  155.8753 C.2     1  UNL1        0.0537
     25 C         139.3698  148.1029  155.1462 C.2     1  UNL1        0.0714
     26 C         140.2212  148.1701  153.9131 C.2     1  UNL1       -0.0133
     27 C         140.9100  146.9366  153.4091 C.3     1  UNL1        0.1037
     28 C         140.7474  145.6359  154.1381 C.2     1  UNL1        0.2178
     29 N         141.2994  144.2651  153.8807 N.2     1  UNL1       -0.0347
     30 C         138.6810  149.3364  155.6502 C.3     1  UNL1        0.4184
     31 F         137.9922  150.5699  156.1542 F       1  UNL1       -0.1659
     32 F         138.4183  148.6544  156.9601 F       1  UNL1       -0.1659
     33 F         138.9437  150.0183  154.3403 F       1  UNL1       -0.1659
@<TRIPOS>UNITY_ATOM_ATTR
18 1
charge -1
@<TRIPOS>BOND
     1    18    19   ar
     2    19    20   ar
     3    19    17    1
     4    17     7    1
     5     7     8    1
     6     8     9    1
     7     9    10    1
     8    10    11    1
     9    11    12    1
    10    12    13    1
    11    13     1    1
    12     1     2   ar
    13     2     3   ar
    14     3     4   ar
    15     4    21    1
    16    21    22    2
    17    22    23    1
    18    23    24    2
    19    24    25    1
    20    25    30    1
    21    30    31    1
    22    30    32    1
    23    30    33    1
    24    25    26    2
    25    26    27    1
    26    27    28    1
    27    28    29    2
    28     4     5   ar
    29     5     6   ar
    30    13    14    1
    31    14    15    1
    32    10    16    1
    33    16     7    1
    34    15    10    1
    35     6     1   ar
    36    29    21    1
    37    28    23    1
