@<TRIPOS>MOLECULE
*****
 34 37 0 0 0
SMALL
GASTEIGER

@<TRIPOS>ATOM
      1 N         141.1766  145.1363  162.2122 N.3     1  UNL1       -0.2673
      2 C         141.6651  144.1778  161.1670 C.3     1  UNL1        0.1035
      3 C         142.8334  143.2830  161.4574 C.3     1  UNL1        0.1470
      4 C         144.0017  142.3881  161.7477 C.3     1  UNL1        0.1035
      5 N         144.6814  142.4517  163.0833 N.3     1  UNL1       -0.2682
      6 C         144.1928  143.4103  164.1286 C.3     1  UNL1        0.1035
      7 C         143.0246  144.3051  163.8382 C.3     1  UNL1        0.1470
      8 C         141.8563  145.2000  163.5479 C.3     1  UNL1        0.1035
      9 O         143.5131  143.3466  162.7930 O.3     1  UNL1       -0.3530
     10 C         140.0082  146.0312  161.9219 C.3     1  UNL1        0.0913
     11 C         138.6250  145.6129  162.3239 C.3     1  UNL1        0.1087
     12 N         138.2864  144.1564  162.4420 N.3     1  UNL1       -0.1780
     13 H         137.2711  144.0839  162.3773 H       1  UNL1        0.1488
     14 S         138.6987  143.3870  163.6618 S.O2    1  UNL1        0.0603
     15 O         138.2381  144.5191  164.5314 O.2     1  UNL1       -0.1530
     16 O         139.1592  142.2550  162.7923 O.2     1  UNL1       -0.1530
     17 C         139.9353  141.0790  167.3215 C.ar    1  UNL1        0.0685
     18 C         140.3872  142.4979  167.1415 C.ar    1  UNL1        0.0116
     19 C         139.9750  143.2673  165.9216 C.ar    1  UNL1        0.0206
     20 C         139.1109  142.6177  164.8817 C.ar    1  UNL1        0.1220
     21 C         138.6590  141.1987  165.0618 C.ar    1  UNL1        0.0206
     22 C         139.0712  140.4294  166.2817 C.ar    1  UNL1        0.0116
     23 N         140.7598  139.5403  169.7614 N.1     1  UNL1       -0.1908
     24 C         140.3476  140.3097  168.5414 C.1     1  UNL1        0.1004
     25 C         145.8497  141.5569  163.3737 C.3     1  UNL1        0.0769
     26 C         145.6665  140.3377  164.2283 C.3     1  UNL1        0.0437
     27 C         144.3692  139.5855  164.1934 C.ar    1  UNL1       -0.0184
     28 C         143.5164  139.5039  165.4246 C.ar    1  UNL1       -0.0018
     29 C         142.2191  138.7516  165.3899 C.ar    1  UNL1        0.0316
     30 C         141.7747  138.0810  164.1238 C.ar    1  UNL1        0.1674
     31 F         140.4774  137.3288  164.0890 F       1  UNL1       -0.2018
     32 C         142.6276  138.1627  162.8926 C.ar    1  UNL1        0.1671
     33 F         142.1832  137.4921  161.6265 F       1  UNL1       -0.2018
     34 C         143.9249  138.9149  162.9274 C.ar    1  UNL1        0.0277
@<TRIPOS>BOND
     1    23    24    3
     2    24    17    1
     3    17    18   ar
     4    18    19   ar
     5    19    20   ar
     6    20    14    1
     7    14    15    2
     8    14    16    2
     9    14    12    1
    10    12    11    1
    11    11    10    1
    12    10     1    1
    13     1     2    1
    14     2     3    1
    15     3     4    1
    16     4     5    1
    17     5    25    1
    18    25    26    1
    19    26    27    1
    20    27    28   ar
    21    28    29   ar
    22    29    30   ar
    23    30    31    1
    24    30    32   ar
    25    32    33    1
    26    32    34   ar
    27     5     6    1
    28     6     7    1
    29     7     8    1
    30     7     9    1
    31    20    21   ar
    32    21    22   ar
    33    22    17   ar
    34     8     1    1
    35     9     3    1
    36    34    27   ar
    37    12    13    1
@<TRIPOS>MOLECULE
*****
 34 37 0 0 0
SMALL
GASTEIGER

@<TRIPOS>ATOM
      1 N         138.2258  140.4861  161.5220 N.3     1  UNL1       -0.2673
      2 C         139.2410  141.0597  160.5785 C.3     1  UNL1        0.1035
      3 C         139.9793  142.3135  160.9430 C.3     1  UNL1        0.1470
      4 C         140.7176  143.5674  161.3074 C.3     1  UNL1        0.1035
      5 N         140.4406  144.2476  162.6153 N.3     1  UNL1       -0.2682
      6 C         139.4253  143.6740  163.5587 C.3     1  UNL1        0.1035
      7 C         138.6870  142.4201  163.1943 C.3     1  UNL1        0.1470
      8 C         137.9488  141.1663  162.8299 C.3     1  UNL1        0.1035
      9 O         139.7023  142.9937  162.2508 O.3     1  UNL1       -0.3530
     10 C         137.4875  139.2322  161.1576 C.3     1  UNL1        0.0913
     11 C         137.8689  137.9266  161.7899 C.3     1  UNL1        0.1087
     12 N         139.3124  137.6131  162.0509 N.3     1  UNL1       -0.1780
     13 H         139.4022  136.5973  162.0266 H       1  UNL1        0.1488
     14 S         139.9624  138.0749  163.3214 S.O2    1  UNL1        0.0603
     15 O         138.7639  137.6196  164.1000 O.2     1  UNL1       -0.1530
     16 O         141.1608  138.5303  162.5428 O.2     1  UNL1       -0.1530
     17 C         141.9123  139.4604  167.1330 C.ar    1  UNL1        0.0685
     18 C         140.4858  139.8242  166.8451 C.ar    1  UNL1        0.0116
     19 C         139.8358  139.3623  165.5745 C.ar    1  UNL1        0.0206
     20 C         140.6123  138.5368  164.5919 C.ar    1  UNL1        0.1220
     21 C         142.0388  138.1730  164.8799 C.ar    1  UNL1        0.0206
     22 C         142.6887  138.6349  166.1504 C.ar    1  UNL1        0.0116
     23 N         143.2122  140.3841  169.6741 N.1     1  UNL1       -0.1908
     24 C         142.5622  139.9223  168.4035 C.1     1  UNL1        0.1004
     25 C         141.1788  145.5015  162.9797 C.3     1  UNL1        0.0769
     26 C         142.3909  145.4291  163.8604 C.3     1  UNL1        0.0437
     27 C         143.1396  144.1370  164.0012 C.ar    1  UNL1       -0.0184
     28 C         142.9459  143.2872  165.2219 C.ar    1  UNL1       -0.0018
     29 C         143.6946  141.9950  165.3628 C.ar    1  UNL1        0.0316
     30 C         144.6370  141.5527  164.2828 C.ar    1  UNL1        0.1674
     31 F         145.3857  140.2605  164.4236 F       1  UNL1       -0.2018
     32 C         144.8307  142.4026  163.0620 C.ar    1  UNL1        0.1671
     33 F         145.7731  141.9603  161.9821 F       1  UNL1       -0.2018
     34 C         144.0820  143.6947  162.9212 C.ar    1  UNL1        0.0277
@<TRIPOS>BOND
     1    23    24    3
     2    24    17    1
     3    17    18   ar
     4    18    19   ar
     5    19    20   ar
     6    20    14    1
     7    14    15    2
     8    14    16    2
     9    14    12    1
    10    12    11    1
    11    11    10    1
    12    10     1    1
    13     1     2    1
    14     2     3    1
    15     3     4    1
    16     4     5    1
    17     5    25    1
    18    25    26    1
    19    26    27    1
    20    27    28   ar
    21    28    29   ar
    22    29    30   ar
    23    30    31    1
    24    30    32   ar
    25    32    33    1
    26    32    34   ar
    27     5     6    1
    28     6     7    1
    29     7     8    1
    30     7     9    1
    31    20    21   ar
    32    21    22   ar
    33    22    17   ar
    34     8     1    1
    35     9     3    1
    36    34    27   ar
    37    12    13    1
@<TRIPOS>MOLECULE
*****
 34 37 0 0 0
SMALL
GASTEIGER

@<TRIPOS>ATOM
      1 N         140.8610  144.2238  160.4919 N.3     1  UNL1       -0.2673
      2 C         139.8848  143.0985  160.3168 C.3     1  UNL1        0.1035
      3 C         140.3821  141.6924  160.1569 C.3     1  UNL1        0.1470
      4 C         140.8794  140.2863  159.9970 C.3     1  UNL1        0.1035
      5 N         142.3529  140.0056  160.0121 N.3     1  UNL1       -0.2682
      6 C         143.3290  141.1310  160.1872 C.3     1  UNL1        0.1035
      7 C         142.8317  142.5371  160.3472 C.3     1  UNL1        0.1470
      8 C         142.3344  143.9431  160.5071 C.3     1  UNL1        0.1035
      9 O         141.8556  141.4117  160.1721 O.3     1  UNL1       -0.3530
     10 C         140.3637  145.6300  160.6519 C.3     1  UNL1        0.0913
     11 C         139.7038  146.0512  161.9314 C.3     1  UNL1        0.1087
     12 N         140.2776  145.6199  163.2485 N.3     1  UNL1       -0.1780
     13 H         141.2888  145.5664  163.1258 H       1  UNL1        0.1488
     14 S         139.8470  144.3223  163.8654 S.O2    1  UNL1        0.0603
     15 O         138.4404  144.5716  163.4079 O.2     1  UNL1       -0.1530
     16 O         141.2535  144.0730  164.3230 O.2     1  UNL1       -0.1530
     17 C         138.5550  140.4293  165.7161 C.ar    1  UNL1        0.0685
     18 C         139.6567  141.2295  166.3451 C.ar    1  UNL1        0.0116
     19 C         140.0874  142.5272  165.7282 C.ar    1  UNL1        0.0206
     20 C         139.4163  143.0246  164.4823 C.ar    1  UNL1        0.1220
     21 C         138.3145  142.2243  163.8533 C.ar    1  UNL1        0.0206
     22 C         137.8838  140.9267  164.4702 C.ar    1  UNL1        0.0116
     23 N         137.6936  137.8339  166.9499 N.1     1  UNL1       -0.1908
     24 C         138.1243  139.1316  166.3330 C.1     1  UNL1        0.1004
     25 C         142.8502  138.5995  159.8522 C.3     1  UNL1        0.0769
     26 C         143.5623  137.9223  160.9855 C.3     1  UNL1        0.0437
     27 C         143.1166  138.1569  162.3984 C.ar    1  UNL1       -0.0184
     28 C         143.9574  138.9876  163.3219 C.ar    1  UNL1       -0.0018
     29 C         143.5118  139.2222  164.7349 C.ar    1  UNL1        0.0316
     30 C         142.2252  138.6261  165.2243 C.ar    1  UNL1        0.1674
     31 F         141.7795  138.8607  166.6371 F       1  UNL1       -0.2018
     32 C         141.3844  137.7954  164.3007 C.ar    1  UNL1        0.1671
     33 F         140.0979  137.1993  164.7901 F       1  UNL1       -0.2018
     34 C         141.8301  137.5608  162.8878 C.ar    1  UNL1        0.0277
@<TRIPOS>BOND
     1    23    24    3
     2    24    17    1
     3    17    18   ar
     4    18    19   ar
     5    19    20   ar
     6    20    14    1
     7    14    15    2
     8    14    16    2
     9    14    12    1
    10    12    11    1
    11    11    10    1
    12    10     1    1
    13     1     2    1
    14     2     3    1
    15     3     4    1
    16     4     5    1
    17     5    25    1
    18    25    26    1
    19    26    27    1
    20    27    28   ar
    21    28    29   ar
    22    29    30   ar
    23    30    31    1
    24    30    32   ar
    25    32    33    1
    26    32    34   ar
    27     5     6    1
    28     6     7    1
    29     7     8    1
    30     7     9    1
    31    20    21   ar
    32    21    22   ar
    33    22    17   ar
    34     8     1    1
    35     9     3    1
    36    34    27   ar
    37    12    13    1
@<TRIPOS>MOLECULE
*****
 34 37 0 0 0
SMALL
GASTEIGER

@<TRIPOS>ATOM
      1 N         140.7421  139.8725  159.2267 N.3     1  UNL1       -0.2673
      2 C         139.9379  139.3484  160.3793 C.3     1  UNL1        0.1035
      3 C         139.2697  140.3035  161.3233 C.3     1  UNL1        0.1470
      4 C         138.6013  141.2586  162.2674 C.3     1  UNL1        0.1035
      5 N         138.7373  142.7378  162.0588 N.3     1  UNL1       -0.2682
      6 C         139.5416  143.2619  160.9062 C.3     1  UNL1        0.1035
      7 C         140.2098  142.3068  159.9622 C.3     1  UNL1        0.1470
      8 C         140.8781  141.3517  159.0182 C.3     1  UNL1        0.1035
      9 O         139.4056  141.7827  161.1148 O.3     1  UNL1       -0.3530
     10 C         141.4105  138.9174  158.2826 C.3     1  UNL1        0.0913
     11 C         142.6518  138.1896  158.7060 C.3     1  UNL1        0.1087
     12 N         143.6887  138.8925  159.5312 N.3     1  UNL1       -0.1780
     13 H         144.5844  138.4560  159.3128 H       1  UNL1        0.1488
     14 S         143.5701  138.9126  161.0264 S.O2    1  UNL1        0.0603
     15 O         143.6731  140.4090  161.0144 O.2     1  UNL1       -0.1530
     16 O         143.4672  137.4162  161.0384 O.2     1  UNL1       -0.1530
     17 C         143.2145  138.9731  165.5119 C.ar    1  UNL1        0.0685
     18 C         142.2018  138.2331  164.6892 C.ar    1  UNL1        0.0116
     19 C         142.3203  138.2129  163.1939 C.ar    1  UNL1        0.0206
     20 C         143.4516  138.9328  162.5215 C.ar    1  UNL1        0.1220
     21 C         144.4643  139.6728  163.3443 C.ar    1  UNL1        0.0206
     22 C         144.3457  139.6929  164.8395 C.ar    1  UNL1        0.0116
     23 N         142.9773  139.0133  168.5022 N.1     1  UNL1       -0.1908
     24 C         143.0959  138.9932  167.0070 C.1     1  UNL1        0.1004
     25 C         138.0690  143.6928  163.0028 C.3     1  UNL1        0.0769
     26 C         138.8979  144.5754  163.8884 C.3     1  UNL1        0.0437
     27 C         140.3258  144.2189  164.1777 C.ar    1  UNL1       -0.0184
     28 C         140.6433  143.0177  165.0182 C.ar    1  UNL1       -0.0018
     29 C         142.0714  142.6611  165.3076 C.ar    1  UNL1        0.0316
     30 C         143.1818  143.5056  164.7564 C.ar    1  UNL1        0.1674
     31 F         144.6097  143.1490  165.0458 F       1  UNL1       -0.2018
     32 C         142.8642  144.7068  163.9159 C.ar    1  UNL1        0.1671
     33 F         143.9746  145.5513  163.3648 F       1  UNL1       -0.2018
     34 C         141.4362  145.0634  163.6266 C.ar    1  UNL1        0.0277
@<TRIPOS>BOND
     1    23    24    3
     2    24    17    1
     3    17    18   ar
     4    18    19   ar
     5    19    20   ar
     6    20    14    1
     7    14    15    2
     8    14    16    2
     9    14    12    1
    10    12    11    1
    11    11    10    1
    12    10     1    1
    13     1     2    1
    14     2     3    1
    15     3     4    1
    16     4     5    1
    17     5    25    1
    18    25    26    1
    19    26    27    1
    20    27    28   ar
    21    28    29   ar
    22    29    30   ar
    23    30    31    1
    24    30    32   ar
    25    32    33    1
    26    32    34   ar
    27     5     6    1
    28     6     7    1
    29     7     8    1
    30     7     9    1
    31    20    21   ar
    32    21    22   ar
    33    22    17   ar
    34     8     1    1
    35     9     3    1
    36    34    27   ar
    37    12    13    1
@<TRIPOS>MOLECULE
*****
 34 37 0 0 0
SMALL
GASTEIGER

@<TRIPOS>ATOM
      1 N         142.2893  139.2179  159.4800 N.3     1  UNL1       -0.2673
      2 C         142.8267  140.5977  159.2406 C.3     1  UNL1        0.1035
      3 C         143.6732  141.2643  160.2842 C.3     1  UNL1        0.1470
      4 C         144.5197  141.9310  161.3277 C.3     1  UNL1        0.1035
      5 N         144.8287  141.2179  162.6107 N.3     1  UNL1       -0.2682
      6 C         144.2912  139.8380  162.8500 C.3     1  UNL1        0.1035
      7 C         143.4448  139.1714  161.8065 C.3     1  UNL1        0.1470
      8 C         142.5983  138.5048  160.7629 C.3     1  UNL1        0.1035
      9 O         143.9822  140.5512  161.5671 O.3     1  UNL1       -0.3530
     10 C         141.4428  138.5512  158.4364 C.3     1  UNL1        0.0913
     11 C         139.9797  138.3328  158.6847 C.3     1  UNL1        0.1087
     12 N         139.1705  139.3891  159.3771 N.3     1  UNL1       -0.1780
     13 H         139.6202  140.2826  159.1774 H       1  UNL1        0.1488
     14 S         138.9707  139.3274  160.8624 S.O2    1  UNL1        0.0603
     15 O         138.9749  137.8287  160.8008 O.2     1  UNL1       -0.1530
     16 O         138.9665  140.8261  160.9241 O.2     1  UNL1       -0.1530
     17 C         138.3713  139.1423  165.3185 C.ar    1  UNL1        0.0685
     18 C         138.0293  140.3947  164.5671 C.ar    1  UNL1        0.0116
     19 C         138.2291  140.4564  163.0817 C.ar    1  UNL1        0.0206
     20 C         138.7709  139.2657  162.3478 C.ar    1  UNL1        0.1220
     21 C         139.1129  138.0133  163.0992 C.ar    1  UNL1        0.0206
     22 C         138.9131  137.9516  164.5845 C.ar    1  UNL1        0.0116
     23 N         137.9717  139.0189  168.2892 N.1     1  UNL1       -0.1908
     24 C         138.1715  139.0806  166.8038 C.1     1  UNL1        0.1004
     25 C         145.6752  141.8845  163.6543 C.3     1  UNL1        0.0769
     26 C         145.0260  142.6174  164.7907 C.3     1  UNL1        0.0437
     27 C         143.6944  143.2791  164.5932 C.ar    1  UNL1       -0.0184
     28 C         143.5957  144.5394  163.7859 C.ar    1  UNL1       -0.0018
     29 C         142.2641  145.2012  163.5884 C.ar    1  UNL1        0.0316
     30 C         141.0313  144.6027  164.1983 C.ar    1  UNL1        0.1674
     31 F         139.6997  145.2644  164.0008 F       1  UNL1       -0.2018
     32 C         141.1301  143.3423  165.0057 C.ar    1  UNL1        0.1671
     33 F         139.8973  142.7438  165.6156 F       1  UNL1       -0.2018
     34 C         142.4617  142.6806  165.2032 C.ar    1  UNL1        0.0277
@<TRIPOS>BOND
     1    23    24    3
     2    24    17    1
     3    17    18   ar
     4    18    19   ar
     5    19    20   ar
     6    20    14    1
     7    14    15    2
     8    14    16    2
     9    14    12    1
    10    12    11    1
    11    11    10    1
    12    10     1    1
    13     1     2    1
    14     2     3    1
    15     3     4    1
    16     4     5    1
    17     5    25    1
    18    25    26    1
    19    26    27    1
    20    27    28   ar
    21    28    29   ar
    22    29    30   ar
    23    30    31    1
    24    30    32   ar
    25    32    33    1
    26    32    34   ar
    27     5     6    1
    28     6     7    1
    29     7     8    1
    30     7     9    1
    31    20    21   ar
    32    21    22   ar
    33    22    17   ar
    34     8     1    1
    35     9     3    1
    36    34    27   ar
    37    12    13    1
@<TRIPOS>MOLECULE
*****
 34 37 0 0 0
SMALL
GASTEIGER

@<TRIPOS>ATOM
      1 N         141.0379  144.2367  160.4118 N.3     1  UNL1       -0.2673
      2 C         142.3170  144.0451  161.1714 C.3     1  UNL1        0.1035
      3 C         142.9716  142.6960  161.2097 C.3     1  UNL1        0.1470
      4 C         143.6262  141.3469  161.2481 C.3     1  UNL1        0.1035
      5 N         143.0017  140.1894  160.5268 N.3     1  UNL1       -0.2682
      6 C         141.7225  140.3811  159.7672 C.3     1  UNL1        0.1035
      7 C         141.0679  141.7302  159.7288 C.3     1  UNL1        0.1470
      8 C         140.4133  143.0792  159.6905 C.3     1  UNL1        0.1035
      9 O         142.3470  141.5386  160.4884 O.3     1  UNL1       -0.3530
     10 C         140.3832  145.5858  160.3734 C.3     1  UNL1        0.0913
     11 C         139.5657  146.0562  161.5397 C.3     1  UNL1        0.1087
     12 N         138.4932  145.1747  162.1080 N.3     1  UNL1       -0.1780
     13 H         137.7447  145.7898  162.4267 H       1  UNL1        0.1488
     14 S         138.8077  144.2496  163.2462 S.O2    1  UNL1        0.0603
     15 O         139.7261  145.2814  163.8310 O.2     1  UNL1       -0.1530
     16 O         137.8893  143.2179  162.6614 O.2     1  UNL1       -0.1530
     17 C         139.7510  141.4745  166.6606 C.ar    1  UNL1        0.0685
     18 C         140.4236  142.8124  166.5738 C.ar    1  UNL1        0.0116
     19 C         140.1092  143.7375  165.4356 C.ar    1  UNL1        0.0206
     20 C         139.1221  143.3246  164.3843 C.ar    1  UNL1        0.1220
     21 C         138.4495  141.9867  164.4712 C.ar    1  UNL1        0.0206
     22 C         138.7639  141.0617  165.6094 C.ar    1  UNL1        0.0116
     23 N         140.3799  139.6245  168.9370 N.1     1  UNL1       -0.1908
     24 C         140.0654  140.5495  167.7988 C.1     1  UNL1        0.1004
     25 C         143.6562  138.8404  160.5651 C.3     1  UNL1        0.0769
     26 C         143.7859  138.1063  161.8669 C.3     1  UNL1        0.0437
     27 C         142.6283  138.0588  162.8196 C.ar    1  UNL1       -0.0184
     28 C         142.8268  138.4275  164.2599 C.ar    1  UNL1       -0.0018
     29 C         141.6692  138.3800  165.2128 C.ar    1  UNL1        0.0316
     30 C         140.3131  137.9638  164.7252 C.ar    1  UNL1        0.1674
     31 F         139.1556  137.9163  165.6779 F       1  UNL1       -0.2018
     32 C         140.1146  137.5951  163.2847 C.ar    1  UNL1        0.1671
     33 F         138.7585  137.1789  162.7971 F       1  UNL1       -0.2018
     34 C         141.2722  137.6426  162.3320 C.ar    1  UNL1        0.0277
@<TRIPOS>BOND
     1    23    24    3
     2    24    17    1
     3    17    18   ar
     4    18    19   ar
     5    19    20   ar
     6    20    14    1
     7    14    15    2
     8    14    16    2
     9    14    12    1
    10    12    11    1
    11    11    10    1
    12    10     1    1
    13     1     2    1
    14     2     3    1
    15     3     4    1
    16     4     5    1
    17     5    25    1
    18    25    26    1
    19    26    27    1
    20    27    28   ar
    21    28    29   ar
    22    29    30   ar
    23    30    31    1
    24    30    32   ar
    25    32    33    1
    26    32    34   ar
    27     5     6    1
    28     6     7    1
    29     7     8    1
    30     7     9    1
    31    20    21   ar
    32    21    22   ar
    33    22    17   ar
    34     8     1    1
    35     9     3    1
    36    34    27   ar
    37    12    13    1
@<TRIPOS>MOLECULE
*****
 34 37 0 0 0
SMALL
GASTEIGER

@<TRIPOS>ATOM
      1 N         142.2992  139.7539  160.1692 N.3     1  UNL1       -0.2673
      2 C         143.2735  140.8892  160.2774 C.3     1  UNL1        0.1035
      3 C         142.7843  142.3058  160.2137 C.3     1  UNL1        0.1470
      4 C         142.2952  143.7224  160.1500 C.3     1  UNL1        0.1035
      5 N         140.8319  144.0036  159.9781 N.3     1  UNL1       -0.2682
      6 C         139.8576  142.8681  159.8699 C.3     1  UNL1        0.1035
      7 C         140.3468  141.4516  159.9336 C.3     1  UNL1        0.1470
      8 C         140.8359  140.0350  159.9973 C.3     1  UNL1        0.1035
      9 O         141.3210  142.5870  160.0418 O.3     1  UNL1       -0.3530
     10 C         142.7883  138.3372  160.2329 C.3     1  UNL1        0.0913
     11 C         142.8291  137.6163  161.5476 C.3     1  UNL1        0.1087
     12 N         141.5513  137.2100  162.2202 N.3     1  UNL1       -0.1780
     13 H         140.7980  137.3959  161.5581 H       1  UNL1        0.1488
     14 S         141.1527  137.8453  163.5193 S.O2    1  UNL1        0.0603
     15 O         139.7385  137.3930  163.3064 O.2     1  UNL1       -0.1530
     16 O         142.5669  138.2976  163.7321 O.2     1  UNL1       -0.1530
     17 C         139.9567  139.7510  167.4164 C.ar    1  UNL1        0.0685
     18 C         141.4052  139.6680  167.0355 C.ar    1  UNL1        0.0116
     19 C         141.8039  139.0328  165.7364 C.ar    1  UNL1        0.0206
     20 C         140.7541  138.4805  164.8183 C.ar    1  UNL1        0.1220
     21 C         139.3056  138.5635  165.1992 C.ar    1  UNL1        0.0206
     22 C         138.9069  139.1988  166.4982 C.ar    1  UNL1        0.0116
     23 N         139.1595  141.0216  170.0145 N.1     1  UNL1       -0.1908
     24 C         139.5581  140.3863  168.7154 C.1     1  UNL1        0.1004
     25 C         140.3428  145.4201  159.9145 C.3     1  UNL1        0.0769
     26 C         139.8462  146.0987  161.1567 C.3     1  UNL1        0.0437
     27 C         139.8364  145.3599  162.4620 C.ar    1  UNL1       -0.0184
     28 C         141.1025  145.2198  163.2540 C.ar    1  UNL1       -0.0018
     29 C         141.0927  144.4810  164.5594 C.ar    1  UNL1        0.0316
     30 C         139.8168  143.8823  165.0728 C.ar    1  UNL1        0.1674
     31 F         139.8070  143.1434  166.3782 F       1  UNL1       -0.2018
     32 C         138.5506  144.0224  164.2808 C.ar    1  UNL1        0.1671
     33 F         137.2747  143.4237  164.7942 F       1  UNL1       -0.2018
     34 C         138.5604  144.7612  162.9754 C.ar    1  UNL1        0.0277
@<TRIPOS>BOND
     1    23    24    3
     2    24    17    1
     3    17    18   ar
     4    18    19   ar
     5    19    20   ar
     6    20    14    1
     7    14    15    2
     8    14    16    2
     9    14    12    1
    10    12    11    1
    11    11    10    1
    12    10     1    1
    13     1     2    1
    14     2     3    1
    15     3     4    1
    16     4     5    1
    17     5    25    1
    18    25    26    1
    19    26    27    1
    20    27    28   ar
    21    28    29   ar
    22    29    30   ar
    23    30    31    1
    24    30    32   ar
    25    32    33    1
    26    32    34   ar
    27     5     6    1
    28     6     7    1
    29     7     8    1
    30     7     9    1
    31    20    21   ar
    32    21    22   ar
    33    22    17   ar
    34     8     1    1
    35     9     3    1
    36    34    27   ar
    37    12    13    1
@<TRIPOS>MOLECULE
*****
 34 37 0 0 0
SMALL
GASTEIGER

@<TRIPOS>ATOM
      1 N         142.6825  141.1730  159.7543 N.3     1  UNL1       -0.2673
      2 C         141.3125  141.6250  159.3435 C.3     1  UNL1        0.1035
      3 C         140.5868  142.6545  160.1580 C.3     1  UNL1        0.1470
      4 C         139.8611  143.6841  160.9725 C.3     1  UNL1        0.1035
      5 N         140.5054  144.2617  162.1977 N.3     1  UNL1       -0.2682
      6 C         141.8755  143.8097  162.6085 C.3     1  UNL1        0.1035
      7 C         142.6012  142.7802  161.7940 C.3     1  UNL1        0.1470
      8 C         143.3268  141.7506  160.9795 C.3     1  UNL1        0.1035
      9 O         141.2312  143.2321  161.3832 O.3     1  UNL1       -0.3530
     10 C         143.4082  140.1434  158.9398 C.3     1  UNL1        0.0913
     11 C         142.7572  138.8244  158.6458 C.3     1  UNL1        0.1087
     12 N         142.9010  137.6854  159.6112 N.3     1  UNL1       -0.1780
     13 H         142.1295  137.0441  159.4270 H       1  UNL1        0.1488
     14 S         142.9015  137.9492  161.0878 S.O2    1  UNL1        0.0603
     15 O         144.3913  137.7773  161.1180 O.2     1  UNL1       -0.1530
     16 O         141.4118  138.1211  161.0576 O.2     1  UNL1       -0.1530
     17 C         142.9032  138.7407  165.5176 C.ar    1  UNL1        0.0685
     18 C         141.7307  138.0578  164.8783 C.ar    1  UNL1        0.0116
     19 C         141.7302  137.7939  163.4016 C.ar    1  UNL1        0.0206
     20 C         142.9021  138.2130  162.5644 C.ar    1  UNL1        0.1220
     21 C         144.0746  138.8960  163.2039 C.ar    1  UNL1        0.0206
     22 C         144.0751  139.1599  164.6804 C.ar    1  UNL1        0.0116
     23 N         142.9043  139.2684  168.4709 N.1     1  UNL1       -0.1908
     24 C         142.9037  139.0046  166.9942 C.1     1  UNL1        0.1004
     25 C         139.7798  145.2913  163.0122 C.3     1  UNL1        0.0769
     26 C         138.9534  144.8692  164.1908 C.3     1  UNL1        0.0437
     27 C         138.7535  143.4116  164.4832 C.ar    1  UNL1       -0.0184
     28 C         137.7386  142.6238  163.7090 C.ar    1  UNL1       -0.0018
     29 C         137.5386  141.1661  164.0014 C.ar    1  UNL1        0.0316
     30 C         138.3535  140.4964  165.0679 C.ar    1  UNL1        0.1674
     31 F         138.1536  139.0389  165.3602 F       1  UNL1       -0.2018
     32 C         139.3684  141.2844  165.8420 C.ar    1  UNL1        0.1671
     33 F         140.1834  140.6147  166.9085 F       1  UNL1       -0.2018
     34 C         139.5684  142.7419  165.5497 C.ar    1  UNL1        0.0277
@<TRIPOS>BOND
     1    23    24    3
     2    24    17    1
     3    17    18   ar
     4    18    19   ar
     5    19    20   ar
     6    20    14    1
     7    14    15    2
     8    14    16    2
     9    14    12    1
    10    12    11    1
    11    11    10    1
    12    10     1    1
    13     1     2    1
    14     2     3    1
    15     3     4    1
    16     4     5    1
    17     5    25    1
    18    25    26    1
    19    26    27    1
    20    27    28   ar
    21    28    29   ar
    22    29    30   ar
    23    30    31    1
    24    30    32   ar
    25    32    33    1
    26    32    34   ar
    27     5     6    1
    28     6     7    1
    29     7     8    1
    30     7     9    1
    31    20    21   ar
    32    21    22   ar
    33    22    17   ar
    34     8     1    1
    35     9     3    1
    36    34    27   ar
    37    12    13    1
@<TRIPOS>MOLECULE
*****
 34 37 0 0 0
SMALL
GASTEIGER

@<TRIPOS>ATOM
      1 N         142.1007  139.7572  159.5384 N.3     1  UNL1       -0.2673
      2 C         140.6414  140.0889  159.4374 C.3     1  UNL1        0.1035
      3 C         140.1775  141.5010  159.6390 C.3     1  UNL1        0.1470
      4 C         139.7135  142.9131  159.8407 C.3     1  UNL1        0.1035
      5 N         140.7090  143.9936  160.1434 N.3     1  UNL1       -0.2682
      6 C         142.1684  143.6619  160.2444 C.3     1  UNL1        0.1035
      7 C         142.6323  142.2498  160.0427 C.3     1  UNL1        0.1470
      8 C         143.0962  140.8377  159.8411 C.3     1  UNL1        0.1035
      9 O         141.1730  142.5814  159.9417 O.3     1  UNL1       -0.3530
     10 C         142.5647  138.3451  159.3367 C.3     1  UNL1        0.0913
     11 C         143.0423  137.5381  160.5075 C.3     1  UNL1        0.1087
     12 N         142.1505  137.3431  161.6978 N.3     1  UNL1       -0.1780
     13 H         141.1918  137.4603  161.3698 H       1  UNL1        0.1488
     14 S         142.3061  138.2218  162.9035 S.O2    1  UNL1        0.0603
     15 O         143.7477  138.4451  162.5547 O.2     1  UNL1       -0.1530
     16 O         140.8644  137.9985  163.2522 O.2     1  UNL1       -0.1530
     17 C         142.7728  140.8580  166.5205 C.ar    1  UNL1        0.0685
     18 C         141.8155  139.7037  166.5522 C.ar    1  UNL1        0.0116
     19 C         141.6599  138.8249  165.3465 C.ar    1  UNL1        0.0206
     20 C         142.4616  139.1005  164.1091 C.ar    1  UNL1        0.1220
     21 C         143.4190  140.2549  164.0774 C.ar    1  UNL1        0.0206
     22 C         143.5746  141.1336  165.2830 C.ar    1  UNL1        0.0116
     23 N         143.0840  142.6154  168.9319 N.1     1  UNL1       -0.1908
     24 C         142.9284  141.7367  167.7261 C.1     1  UNL1        0.1004
     25 C         140.2451  145.4057  160.3450 C.3     1  UNL1        0.0769
     26 C         140.1004  145.9567  161.7327 C.3     1  UNL1        0.0437
     27 C         139.9924  145.0240  162.9025 C.ar    1  UNL1       -0.0184
     28 C         141.2066  144.7088  163.7249 C.ar    1  UNL1       -0.0018
     29 C         141.0986  143.7761  164.8947 C.ar    1  UNL1        0.0316
     30 C         139.7765  143.1587  165.2422 C.ar    1  UNL1        0.1674
     31 F         139.6685  142.2260  166.4119 F       1  UNL1       -0.2018
     32 C         138.5623  143.4739  164.4197 C.ar    1  UNL1        0.1671
     33 F         137.2401  142.8565  164.7671 F       1  UNL1       -0.2018
     34 C         138.6702  144.4066  163.2499 C.ar    1  UNL1        0.0277
@<TRIPOS>BOND
     1    23    24    3
     2    24    17    1
     3    17    18   ar
     4    18    19   ar
     5    19    20   ar
     6    20    14    1
     7    14    15    2
     8    14    16    2
     9    14    12    1
    10    12    11    1
    11    11    10    1
    12    10     1    1
    13     1     2    1
    14     2     3    1
    15     3     4    1
    16     4     5    1
    17     5    25    1
    18    25    26    1
    19    26    27    1
    20    27    28   ar
    21    28    29   ar
    22    29    30   ar
    23    30    31    1
    24    30    32   ar
    25    32    33    1
    26    32    34   ar
    27     5     6    1
    28     6     7    1
    29     7     8    1
    30     7     9    1
    31    20    21   ar
    32    21    22   ar
    33    22    17   ar
    34     8     1    1
    35     9     3    1
    36    34    27   ar
    37    12    13    1
