@<TRIPOS>MOLECULE
*****
 30 34 0 0 0
SMALL
GASTEIGER

@<TRIPOS>ATOM
      1 C         139.6629  139.3622  164.8600 C.ar    1  UNL1        0.0681
      2 C         139.0097  140.2799  163.8693 C.ar    1  UNL1        0.0208
      3 C         138.8313  139.8421  162.4458 C.ar    1  UNL1        0.0384
      4 C         139.3060  138.4867  162.0129 C.ar    1  UNL1        0.1385
      5 C         139.9591  137.5690  163.0036 C.ar    1  UNL1        0.0384
      6 C         140.1376  138.0068  164.4271 C.ar    1  UNL1        0.0208
      7 C         143.3196  142.4229  167.4117 C.3     1  UNL1        0.0312
      8 C         142.3386  141.9864  168.4592 C.ar    1  UNL1       -0.0158
      9 C         142.5170  142.4243  169.8827 C.ar    1  UNL1       -0.0040
     10 C         141.5361  141.9878  170.9302 C.ar    1  UNL1        0.0012
     11 C         140.3767  141.1136  170.5541 C.ar    1  UNL1        0.0193
     12 C         140.1982  140.6758  169.1306 C.ar    1  UNL1        0.0869
     13 N         139.0388  139.8015  168.7545 N.ar    1  UNL1       -0.2319
     14 C         138.8604  139.3637  167.3310 C.ar    1  UNL1        0.1268
     15 C         137.7009  138.4894  166.9549 C.3     1  UNL1        0.0723
     16 N         139.8414  139.8001  166.2835 N.ar    1  UNL1       -0.2626
     17 C         141.0008  140.6743  166.6596 C.ar    1  UNL1        0.2666
     18 O         141.9818  141.1108  165.6121 O.2     1  UNL1       -0.2666
     19 C         141.1792  141.1122  168.0832 C.ar    1  UNL1        0.0702
     20 O         139.1275  138.0488  160.5894 O.3     1  UNL1       -0.4791
     21 C         140.2112  138.3051  159.5844 C.3     1  UNL1        0.1687
     22 C         141.6286  138.4881  160.0401 C.3     1  UNL1        0.0609
     23 C         142.7122  138.7445  159.0351 C.3     1  UNL1        0.0758
     24 N         142.3785  138.8178  157.5745 N.3     1  UNL1       -0.2737
     25 C         140.9612  138.6347  157.1189 C.3     1  UNL1        0.0758
     26 C         139.8775  138.3784  158.1238 C.3     1  UNL1        0.0609
     27 C         143.4622  139.0741  156.5695 C.3     1  UNL1        0.0575
     28 C         144.4375  140.1866  156.3218 C.3     1  UNL1        0.0160
     29 C         144.9947  139.4366  155.1483 C.3     1  UNL1        0.0028
     30 C         144.0196  138.3242  155.3961 C.3     1  UNL1        0.0160
@<TRIPOS>BOND
     1     7     8    1
     2     8     9   ar
     3     9    10   ar
     4    10    11   ar
     5    11    12   ar
     6    12    13   ar
     7    13    14   ar
     8    14    15    1
     9    14    16   ar
    10    16     1    1
    11     1     2   ar
    12     2     3   ar
    13     3     4   ar
    14     4    20    1
    15    20    21    1
    16    21    22    1
    17    22    23    1
    18    23    24    1
    19    24    27    1
    20    27    28    1
    21    28    29    1
    22    29    30    1
    23    24    25    1
    24    25    26    1
    25     4     5   ar
    26     5     6   ar
    27    16    17   ar
    28    17    18    2
    29    17    19   ar
    30    19     8   ar
    31    19    12   ar
    32     6     1   ar
    33    26    21    1
    34    30    27    1
@<TRIPOS>MOLECULE
*****
 30 34 0 0 0
SMALL
GASTEIGER

@<TRIPOS>ATOM
      1 C         139.6504  139.3667  164.8585 C.ar    1  UNL1        0.0681
      2 C         140.1237  138.0128  164.4191 C.ar    1  UNL1        0.0208
      3 C         139.9570  137.5872  162.9905 C.ar    1  UNL1        0.0384
      4 C         139.3169  138.5154  162.0013 C.ar    1  UNL1        0.1385
      5 C         138.8435  139.8692  162.4406 C.ar    1  UNL1        0.0384
      6 C         139.0103  140.2949  163.8692 C.ar    1  UNL1        0.0208
      7 C         143.2925  142.3955  167.4684 C.3     1  UNL1        0.0312
      8 C         142.3008  141.9533  168.5033 C.ar    1  UNL1       -0.0158
      9 C         142.4676  142.3789  169.9320 C.ar    1  UNL1       -0.0040
     10 C         141.4759  141.9368  170.9669 C.ar    1  UNL1        0.0012
     11 C         140.3174  141.0691  170.5732 C.ar    1  UNL1        0.0193
     12 C         140.1507  140.6435  169.1445 C.ar    1  UNL1        0.0869
     13 N         138.9922  139.7757  168.7507 N.ar    1  UNL1       -0.2319
     14 C         138.8255  139.3502  167.3221 C.ar    1  UNL1        0.1268
     15 C         137.6670  138.4824  166.9283 C.3     1  UNL1        0.0723
     16 N         139.8172  139.7923  166.2872 N.ar    1  UNL1       -0.2626
     17 C         140.9756  140.6600  166.6809 C.ar    1  UNL1        0.2666
     18 O         141.9673  141.1021  165.6460 O.2     1  UNL1       -0.2666
     19 C         141.1424  141.0856  168.1096 C.ar    1  UNL1        0.0702
     20 O         139.1501  138.0898  160.5726 O.3     1  UNL1       -0.4791
     21 C         140.2408  138.3571  159.5782 C.3     1  UNL1        0.1687
     22 C         139.9359  138.3464  158.1095 C.3     1  UNL1        0.0609
     23 C         141.0266  138.6138  157.1151 C.3     1  UNL1        0.0758
     24 N         142.4222  138.8919  157.5893 N.3     1  UNL1       -0.2737
     25 C         142.7271  138.9026  159.0579 C.3     1  UNL1        0.0758
     26 C         141.6364  138.6353  160.0524 C.3     1  UNL1        0.0609
     27 C         143.5129  139.1593  156.5949 C.3     1  UNL1        0.0575
     28 C         144.0481  138.4443  155.3897 C.3     1  UNL1        0.0160
     29 C         145.0554  139.5374  155.1886 C.3     1  UNL1        0.0028
     30 C         144.5203  140.2523  156.3937 C.3     1  UNL1        0.0160
@<TRIPOS>BOND
     1     7     8    1
     2     8     9   ar
     3     9    10   ar
     4    10    11   ar
     5    11    12   ar
     6    12    13   ar
     7    13    14   ar
     8    14    15    1
     9    14    16   ar
    10    16     1    1
    11     1     2   ar
    12     2     3   ar
    13     3     4   ar
    14     4    20    1
    15    20    21    1
    16    21    22    1
    17    22    23    1
    18    23    24    1
    19    24    27    1
    20    27    28    1
    21    28    29    1
    22    29    30    1
    23    24    25    1
    24    25    26    1
    25     4     5   ar
    26     5     6   ar
    27    16    17   ar
    28    17    18    2
    29    17    19   ar
    30    19     8   ar
    31    19    12   ar
    32     6     1   ar
    33    26    21    1
    34    30    27    1
@<TRIPOS>MOLECULE
*****
 30 34 0 0 0
SMALL
GASTEIGER

@<TRIPOS>ATOM
      1 C         140.8914  139.4188  160.2604 C.ar    1  UNL1        0.0681
      2 C         140.4683  139.4318  158.8214 C.ar    1  UNL1        0.0208
      3 C         141.2665  138.6798  157.7981 C.ar    1  UNL1        0.0384
      4 C         142.4878  137.9147  158.2138 C.ar    1  UNL1        0.1385
      5 C         142.9110  137.9016  159.6528 C.ar    1  UNL1        0.0384
      6 C         142.1128  138.6537  160.6761 C.ar    1  UNL1        0.0208
      7 C         141.0294  144.4884  162.1393 C.3     1  UNL1        0.0312
      8 C         139.9191  143.8013  162.8774 C.ar    1  UNL1       -0.0158
      9 C         139.1208  144.5533  163.9007 C.ar    1  UNL1       -0.0040
     10 C         138.0104  143.8661  164.6389 C.ar    1  UNL1        0.0012
     11 C         137.6983  142.4270  164.3537 C.ar    1  UNL1        0.0193
     12 C         138.4966  141.6750  163.3304 C.ar    1  UNL1        0.0869
     13 N         138.1845  140.2357  163.0452 N.ar    1  UNL1       -0.2319
     14 C         138.9827  139.4837  162.0219 C.ar    1  UNL1        0.1268
     15 C         138.6707  138.0445  161.7367 C.3     1  UNL1        0.0723
     16 N         140.0931  140.1709  161.2838 N.ar    1  UNL1       -0.2626
     17 C         140.4052  141.6100  161.5689 C.ar    1  UNL1        0.2666
     18 O         141.5156  142.2972  160.8308 O.2     1  UNL1       -0.2666
     19 C         139.6069  142.3621  162.5923 C.ar    1  UNL1        0.0702
     20 O         143.2861  137.1626  157.1904 O.3     1  UNL1       -0.4791
     21 C         142.8392  135.8029  156.7418 C.3     1  UNL1        0.1687
     22 C         141.7740  135.6714  155.6937 C.3     1  UNL1        0.0609
     23 C         141.3271  134.3117  155.2451 C.3     1  UNL1        0.0758
     24 N         141.9453  133.0833  155.8444 N.3     1  UNL1       -0.2737
     25 C         143.0103  133.2148  156.8924 C.3     1  UNL1        0.0758
     26 C         143.4573  134.5746  157.3411 C.3     1  UNL1        0.0609
     27 C         141.4983  131.7236  155.3958 C.3     1  UNL1        0.0575
     28 C         140.3432  131.1968  154.5967 C.3     1  UNL1        0.0160
     29 C         140.8662  129.8006  154.7613 C.3     1  UNL1        0.0028
     30 C         142.0212  130.3273  155.5602 C.3     1  UNL1        0.0160
@<TRIPOS>BOND
     1     7     8    1
     2     8     9   ar
     3     9    10   ar
     4    10    11   ar
     5    11    12   ar
     6    12    13   ar
     7    13    14   ar
     8    14    15    1
     9    14    16   ar
    10    16     1    1
    11     1     2   ar
    12     2     3   ar
    13     3     4   ar
    14     4    20    1
    15    20    21    1
    16    21    22    1
    17    22    23    1
    18    23    24    1
    19    24    27    1
    20    27    28    1
    21    28    29    1
    22    29    30    1
    23    24    25    1
    24    25    26    1
    25     4     5   ar
    26     5     6   ar
    27    16    17   ar
    28    17    18    2
    29    17    19   ar
    30    19     8   ar
    31    19    12   ar
    32     6     1   ar
    33    26    21    1
    34    30    27    1
@<TRIPOS>MOLECULE
*****
 30 34 0 0 0
SMALL
GASTEIGER

@<TRIPOS>ATOM
      1 C         140.4830  139.7092  162.1926 C.ar    1  UNL1        0.0681
      2 C         139.7860  138.5404  161.5616 C.ar    1  UNL1        0.0208
      3 C         139.8312  138.3539  160.0740 C.ar    1  UNL1        0.0384
      4 C         140.5735  139.3363  159.2173 C.ar    1  UNL1        0.1385
      5 C         141.2705  140.5051  159.8482 C.ar    1  UNL1        0.0384
      6 C         141.2253  140.6915  161.3359 C.ar    1  UNL1        0.0208
      7 C         143.8061  138.3669  166.2430 C.3     1  UNL1        0.0312
      8 C         142.6381  139.0629  166.8764 C.ar    1  UNL1       -0.0158
      9 C         142.5928  139.2493  168.3641 C.ar    1  UNL1       -0.0040
     10 C         141.4248  139.9453  168.9975 C.ar    1  UNL1        0.0012
     11 C         140.3020  140.4548  168.1434 C.ar    1  UNL1        0.0193
     12 C         140.3473  140.2684  166.6557 C.ar    1  UNL1        0.0869
     13 N         139.2245  140.7780  165.8014 N.ar    1  UNL1       -0.2319
     14 C         139.2697  140.5916  164.3138 C.ar    1  UNL1        0.1268
     15 C         138.1469  141.1011  163.4595 C.3     1  UNL1        0.0723
     16 N         140.4378  139.8956  163.6803 N.ar    1  UNL1       -0.2626
     17 C         141.5606  139.3860  164.5345 C.ar    1  UNL1        0.2666
     18 O         142.7286  138.6900  163.9011 O.2     1  UNL1       -0.2666
     19 C         141.5153  139.5724  166.0222 C.ar    1  UNL1        0.0702
     20 O         140.6187  139.1499  157.7295 O.3     1  UNL1       -0.4791
     21 C         141.1230  137.8615  157.1501 C.3     1  UNL1        0.1687
     22 C         140.3009  137.1225  156.1361 C.3     1  UNL1        0.0609
     23 C         140.8053  135.8341  155.5567 C.3     1  UNL1        0.0758
     24 N         142.1317  135.2847  155.9913 N.3     1  UNL1       -0.2737
     25 C         142.9537  136.0237  157.0053 C.3     1  UNL1        0.0758
     26 C         142.4494  137.3121  157.5847 C.3     1  UNL1        0.0609
     27 C         142.6361  133.9963  155.4119 C.3     1  UNL1        0.0575
     28 C         143.7269  133.0293  155.7657 C.3     1  UNL1        0.0160
     29 C         143.3493  132.1743  154.5925 C.3     1  UNL1        0.0028
     30 C         142.2585  133.1412  154.2388 C.3     1  UNL1        0.0160
@<TRIPOS>BOND
     1     7     8    1
     2     8     9   ar
     3     9    10   ar
     4    10    11   ar
     5    11    12   ar
     6    12    13   ar
     7    13    14   ar
     8    14    15    1
     9    14    16   ar
    10    16     1    1
    11     1     2   ar
    12     2     3   ar
    13     3     4   ar
    14     4    20    1
    15    20    21    1
    16    21    22    1
    17    22    23    1
    18    23    24    1
    19    24    27    1
    20    27    28    1
    21    28    29    1
    22    29    30    1
    23    24    25    1
    24    25    26    1
    25     4     5   ar
    26     5     6   ar
    27    16    17   ar
    28    17    18    2
    29    17    19   ar
    30    19     8   ar
    31    19    12   ar
    32     6     1   ar
    33    26    21    1
    34    30    27    1
@<TRIPOS>MOLECULE
*****
 30 34 0 0 0
SMALL
GASTEIGER

@<TRIPOS>ATOM
      1 C         142.6531  141.0629  159.0809 C.ar    1  UNL1        0.0681
      2 C         141.3616  140.3033  159.0096 C.ar    1  UNL1        0.0208
      3 C         141.1027  139.3699  157.8642 C.ar    1  UNL1        0.0384
      4 C         142.1353  139.1963  156.7902 C.ar    1  UNL1        0.1385
      5 C         143.4268  139.9559  156.8615 C.ar    1  UNL1        0.0384
      6 C         143.6856  140.8892  158.0068 C.ar    1  UNL1        0.0208
      7 C         144.8610  140.4635  163.9815 C.3     1  UNL1        0.0312
      8 C         144.4702  141.9078  163.8751 C.ar    1  UNL1       -0.0158
      9 C         144.7290  142.8412  165.0204 C.ar    1  UNL1       -0.0040
     10 C         144.3381  144.2854  164.9141 C.ar    1  UNL1        0.0012
     11 C         143.6884  144.7963  163.6623 C.ar    1  UNL1        0.0193
     12 C         143.4296  143.8630  162.5170 C.ar    1  UNL1        0.0869
     13 N         142.7799  144.3739  161.2652 N.ar    1  UNL1       -0.2319
     14 C         142.5211  143.4405  160.1199 C.ar    1  UNL1        0.1268
     15 C         141.8714  143.9514  158.8681 C.3     1  UNL1        0.0723
     16 N         142.9119  141.9963  160.2263 N.ar    1  UNL1       -0.2626
     17 C         143.5616  141.4854  161.4780 C.ar    1  UNL1        0.2666
     18 O         143.9525  140.0411  161.5844 O.2     1  UNL1       -0.2666
     19 C         143.8205  142.4187  162.6234 C.ar    1  UNL1        0.0702
     20 O         141.8764  138.2629  155.6448 O.3     1  UNL1       -0.4791
     21 C         142.4138  136.8629  155.6820 C.3     1  UNL1        0.1687
     22 C         142.3762  136.0121  154.4471 C.3     1  UNL1        0.0609
     23 C         142.9135  134.6122  154.4843 C.3     1  UNL1        0.0758
     24 N         143.4885  134.0630  155.7563 N.3     1  UNL1       -0.2737
     25 C         143.5261  134.9139  156.9910 C.3     1  UNL1        0.0758
     26 C         142.9888  136.3138  156.9539 C.3     1  UNL1        0.0609
     27 C         144.0259  132.6631  155.7934 C.3     1  UNL1        0.0575
     28 C         145.0290  131.9340  156.6375 C.3     1  UNL1        0.0160
     29 C         144.7858  130.6833  155.8460 C.3     1  UNL1        0.0028
     30 C         143.7828  131.4123  155.0020 C.3     1  UNL1        0.0160
@<TRIPOS>BOND
     1     7     8    1
     2     8     9   ar
     3     9    10   ar
     4    10    11   ar
     5    11    12   ar
     6    12    13   ar
     7    13    14   ar
     8    14    15    1
     9    14    16   ar
    10    16     1    1
    11     1     2   ar
    12     2     3   ar
    13     3     4   ar
    14     4    20    1
    15    20    21    1
    16    21    22    1
    17    22    23    1
    18    23    24    1
    19    24    27    1
    20    27    28    1
    21    28    29    1
    22    29    30    1
    23    24    25    1
    24    25    26    1
    25     4     5   ar
    26     5     6   ar
    27    16    17   ar
    28    17    18    2
    29    17    19   ar
    30    19     8   ar
    31    19    12   ar
    32     6     1   ar
    33    26    21    1
    34    30    27    1
@<TRIPOS>MOLECULE
*****
 30 34 0 0 0
SMALL
GASTEIGER

@<TRIPOS>ATOM
      1 C         141.3983  138.8527  162.0207 C.ar    1  UNL1        0.0681
      2 C         140.8993  139.6624  160.8607 C.ar    1  UNL1        0.0208
      3 C         141.4469  139.4193  159.4856 C.ar    1  UNL1        0.0384
      4 C         142.4935  138.3666  159.2704 C.ar    1  UNL1        0.1385
      5 C         142.9925  137.5569  160.4303 C.ar    1  UNL1        0.0384
      6 C         142.4449  137.8000  161.8055 C.ar    1  UNL1        0.0208
      7 C         143.0803  141.7455  166.2696 C.3     1  UNL1        0.0312
      8 C         141.7895  141.1054  166.6868 C.ar    1  UNL1       -0.0158
      9 C         141.2419  141.3485  168.0619 C.ar    1  UNL1       -0.0040
     10 C         139.9511  140.7084  168.4792 C.ar    1  UNL1        0.0012
     11 C         139.2079  139.8252  167.5213 C.ar    1  UNL1        0.0193
     12 C         139.7555  139.5821  166.1462 C.ar    1  UNL1        0.0869
     13 N         139.0123  138.6989  165.1882 N.ar    1  UNL1       -0.2319
     14 C         139.5599  138.4558  163.8131 C.ar    1  UNL1        0.1268
     15 C         138.8167  137.5725  162.8551 C.3     1  UNL1        0.0723
     16 N         140.8507  139.0959  163.3959 N.ar    1  UNL1       -0.2626
     17 C         141.5939  139.9790  164.3538 C.ar    1  UNL1        0.2666
     18 O         142.8847  140.6191  163.9365 O.2     1  UNL1       -0.2666
     19 C         141.0463  140.2222  165.7290 C.ar    1  UNL1        0.0702
     20 O         143.0411  138.1234  157.8952 O.3     1  UNL1       -0.4791
     21 C         142.6406  136.8938  157.1351 C.3     1  UNL1        0.1687
     22 C         143.3221  135.5863  157.4111 C.3     1  UNL1        0.0609
     23 C         142.9216  134.3568  156.6509 C.3     1  UNL1        0.0758
     24 N         141.8397  134.4347  155.6148 N.3     1  UNL1       -0.2737
     25 C         141.1584  135.7422  155.3388 C.3     1  UNL1        0.0758
     26 C         141.5588  136.9717  156.0990 C.3     1  UNL1        0.0609
     27 C         141.4393  133.2051  154.8547 C.3     1  UNL1        0.0575
     28 C         141.2803  131.7528  155.1946 C.3     1  UNL1        0.0160
     29 C         140.8730  131.4663  153.7797 C.3     1  UNL1        0.0028
     30 C         141.0320  132.9185  153.4398 C.3     1  UNL1        0.0160
@<TRIPOS>BOND
     1     7     8    1
     2     8     9   ar
     3     9    10   ar
     4    10    11   ar
     5    11    12   ar
     6    12    13   ar
     7    13    14   ar
     8    14    15    1
     9    14    16   ar
    10    16     1    1
    11     1     2   ar
    12     2     3   ar
    13     3     4   ar
    14     4    20    1
    15    20    21    1
    16    21    22    1
    17    22    23    1
    18    23    24    1
    19    24    27    1
    20    27    28    1
    21    28    29    1
    22    29    30    1
    23    24    25    1
    24    25    26    1
    25     4     5   ar
    26     5     6   ar
    27    16    17   ar
    28    17    18    2
    29    17    19   ar
    30    19     8   ar
    31    19    12   ar
    32     6     1   ar
    33    26    21    1
    34    30    27    1
@<TRIPOS>MOLECULE
*****
 30 34 0 0 0
SMALL
GASTEIGER

@<TRIPOS>ATOM
      1 C         140.1898  138.9241  160.2321 C.ar    1  UNL1        0.0681
      2 C         139.3383  138.0618  161.1161 C.ar    1  UNL1        0.0208
      3 C         138.6183  138.6662  162.2849 C.ar    1  UNL1        0.0384
      4 C         138.7499  140.1330  162.5698 C.ar    1  UNL1        0.1385
      5 C         139.6014  140.9953  161.6858 C.ar    1  UNL1        0.0384
      6 C         140.3214  140.3909  160.5170 C.ar    1  UNL1        0.0208
      7 C         138.8998  138.1169  155.0423 C.3     1  UNL1        0.0312
      8 C         140.2898  137.5799  155.2138 C.ar    1  UNL1       -0.0158
      9 C         141.0098  136.9754  154.0450 C.ar    1  UNL1       -0.0040
     10 C         142.3998  136.4384  154.2165 C.ar    1  UNL1        0.0012
     11 C         143.0699  136.5059  155.5568 C.ar    1  UNL1        0.0193
     12 C         142.3499  137.1104  156.7256 C.ar    1  UNL1        0.0869
     13 N         143.0199  137.1780  158.0660 N.ar    1  UNL1       -0.2319
     14 C         142.2999  137.7825  159.2348 C.ar    1  UNL1        0.1268
     15 C         142.9699  137.8501  160.5752 C.3     1  UNL1        0.0723
     16 N         140.9099  138.3195  159.0633 N.ar    1  UNL1       -0.2626
     17 C         140.2398  138.2520  157.7230 C.ar    1  UNL1        0.2666
     18 O         138.8498  138.7890  157.5514 O.2     1  UNL1       -0.2666
     19 C         140.9598  137.6474  156.5541 C.ar    1  UNL1        0.0702
     20 O         138.0299  140.7376  163.7386 O.3     1  UNL1       -0.4791
     21 C         138.8022  141.1942  164.9407 C.3     1  UNL1        0.1687
     22 C         139.1178  140.2255  166.0418 C.3     1  UNL1        0.0609
     23 C         139.8902  140.6821  167.2438 C.3     1  UNL1        0.0758
     24 N         140.3470  142.1073  167.3449 N.3     1  UNL1       -0.2737
     25 C         140.0314  143.0759  166.2439 C.3     1  UNL1        0.0758
     26 C         139.2590  142.6193  165.0418 C.3     1  UNL1        0.0609
     27 C         141.1193  142.5639  168.5470 C.3     1  UNL1        0.0575
     28 C         140.7967  143.3648  169.7736 C.3     1  UNL1        0.0160
     29 C         142.2116  143.2096  170.2469 C.3     1  UNL1        0.0028
     30 C         142.5342  142.4088  169.0204 C.3     1  UNL1        0.0160
@<TRIPOS>BOND
     1     7     8    1
     2     8     9   ar
     3     9    10   ar
     4    10    11   ar
     5    11    12   ar
     6    12    13   ar
     7    13    14   ar
     8    14    15    1
     9    14    16   ar
    10    16     1    1
    11     1     2   ar
    12     2     3   ar
    13     3     4   ar
    14     4    20    1
    15    20    21    1
    16    21    22    1
    17    22    23    1
    18    23    24    1
    19    24    27    1
    20    27    28    1
    21    28    29    1
    22    29    30    1
    23    24    25    1
    24    25    26    1
    25     4     5   ar
    26     5     6   ar
    27    16    17   ar
    28    17    18    2
    29    17    19   ar
    30    19     8   ar
    31    19    12   ar
    32     6     1   ar
    33    26    21    1
    34    30    27    1
@<TRIPOS>MOLECULE
*****
 30 34 0 0 0
SMALL
GASTEIGER

@<TRIPOS>ATOM
      1 C         142.6564  139.2250  162.4677 C.ar    1  UNL1        0.0681
      2 C         142.8989  137.8495  161.9207 C.ar    1  UNL1        0.0208
      3 C         143.1504  137.6590  160.4543 C.ar    1  UNL1        0.0384
      4 C         143.1595  138.8441  159.5348 C.ar    1  UNL1        0.1385
      5 C         142.9170  140.2196  160.0818 C.ar    1  UNL1        0.0384
      6 C         142.6655  140.4101  161.5482 C.ar    1  UNL1        0.0208
      7 C         138.1869  139.5221  165.4984 C.3     1  UNL1        0.0312
      8 C         139.3415  139.6769  166.4435 C.ar    1  UNL1       -0.0158
      9 C         139.0900  139.8673  167.9099 C.ar    1  UNL1       -0.0040
     10 C         140.2445  140.0221  168.8549 C.ar    1  UNL1        0.0012
     11 C         141.6505  139.9866  168.3335 C.ar    1  UNL1        0.0193
     12 C         141.9020  139.7962  166.8671 C.ar    1  UNL1        0.0869
     13 N         143.3080  139.7606  166.3456 N.ar    1  UNL1       -0.2319
     14 C         143.5595  139.5702  164.8792 C.ar    1  UNL1        0.1268
     15 C         144.9655  139.5346  164.3577 C.3     1  UNL1        0.0723
     16 N         142.4049  139.4154  163.9342 N.ar    1  UNL1       -0.2626
     17 C         140.9989  139.4509  164.4556 C.ar    1  UNL1        0.2666
     18 O         139.8444  139.2961  163.5105 O.2     1  UNL1       -0.2666
     19 C         140.7474  139.6413  165.9221 C.ar    1  UNL1        0.0702
     20 O         143.4110  138.6537  158.0683 O.3     1  UNL1       -0.4791
     21 C         142.2637  138.3906  157.1386 C.3     1  UNL1        0.1687
     22 C         140.8715  138.2634  157.6825 C.3     1  UNL1        0.0609
     23 C         139.7242  138.0002  156.7528 C.3     1  UNL1        0.0758
     24 N         139.9690  137.8643  155.2791 N.3     1  UNL1       -0.2737
     25 C         141.3611  137.9915  154.7352 C.3     1  UNL1        0.0758
     26 C         142.5084  138.2547  155.6650 C.3     1  UNL1        0.0609
     27 C         138.8217  137.6012  154.3494 C.3     1  UNL1        0.0575
     28 C         138.6876  137.0602  152.9567 C.3     1  UNL1        0.0160
     29 C         137.1992  137.2290  153.0345 C.3     1  UNL1        0.0028
     30 C         137.3333  137.7700  154.4271 C.3     1  UNL1        0.0160
@<TRIPOS>BOND
     1     7     8    1
     2     8     9   ar
     3     9    10   ar
     4    10    11   ar
     5    11    12   ar
     6    12    13   ar
     7    13    14   ar
     8    14    15    1
     9    14    16   ar
    10    16     1    1
    11     1     2   ar
    12     2     3   ar
    13     3     4   ar
    14     4    20    1
    15    20    21    1
    16    21    22    1
    17    22    23    1
    18    23    24    1
    19    24    27    1
    20    27    28    1
    21    28    29    1
    22    29    30    1
    23    24    25    1
    24    25    26    1
    25     4     5   ar
    26     5     6   ar
    27    16    17   ar
    28    17    18    2
    29    17    19   ar
    30    19     8   ar
    31    19    12   ar
    32     6     1   ar
    33    26    21    1
    34    30    27    1
@<TRIPOS>MOLECULE
*****
 30 34 0 0 0
SMALL
GASTEIGER

@<TRIPOS>ATOM
      1 C         138.5546  140.7227  159.9637 C.ar    1  UNL1        0.0681
      2 C         137.8915  141.1415  161.2423 C.ar    1  UNL1        0.0208
      3 C         137.9330  140.2385  162.4394 C.ar    1  UNL1        0.0384
      4 C         138.6376  138.9169  162.3578 C.ar    1  UNL1        0.1385
      5 C         139.3007  138.4981  161.0791 C.ar    1  UNL1        0.0384
      6 C         139.2592  139.4011  159.8821 C.ar    1  UNL1        0.0208
      7 C         135.3892  141.0056  155.5876 C.3     1  UNL1        0.0312
      8 C         136.3890  142.1153  155.4502 C.ar    1  UNL1       -0.0158
      9 C         136.3475  143.0183  154.2532 C.ar    1  UNL1       -0.0040
     10 C         137.3473  144.1280  154.1159 C.ar    1  UNL1        0.0012
     11 C         138.3886  144.3348  155.1756 C.ar    1  UNL1        0.0193
     12 C         138.4301  143.4318  156.3725 C.ar    1  UNL1        0.0869
     13 N         139.4714  143.6385  157.4323 N.ar    1  UNL1       -0.2319
     14 C         139.5129  142.7355  158.6293 C.ar    1  UNL1        0.1268
     15 C         140.5542  142.9422  159.6890 C.3     1  UNL1        0.0723
     16 N         138.5131  141.6258  158.7666 N.ar    1  UNL1       -0.2626
     17 C         137.4718  141.4190  157.7070 C.ar    1  UNL1        0.2666
     18 O         136.4720  140.3093  157.8443 O.2     1  UNL1       -0.2666
     19 C         137.4303  142.3220  156.5099 C.ar    1  UNL1        0.0702
     20 O         138.6791  138.0138  163.5548 O.3     1  UNL1       -0.4791
     21 C         139.0503  138.5668  164.8989 C.3     1  UNL1        0.1687
     22 C         138.0341  138.6030  166.0017 C.3     1  UNL1        0.0609
     23 C         138.4054  139.1560  167.3457 C.3     1  UNL1        0.0758
     24 N         139.7928  139.6727  167.5869 N.3     1  UNL1       -0.2737
     25 C         140.8089  139.6364  166.4842 C.3     1  UNL1        0.0758
     26 C         140.4377  139.0835  165.1401 C.3     1  UNL1        0.0609
     27 C         140.1640  140.2257  168.9310 C.3     1  UNL1        0.0575
     28 C         139.7499  141.4208  169.7375 C.3     1  UNL1        0.0160
     29 C         140.6890  141.0076  170.8317 C.3     1  UNL1        0.0028
     30 C         141.1031  139.8126  170.0253 C.3     1  UNL1        0.0160
@<TRIPOS>BOND
     1     7     8    1
     2     8     9   ar
     3     9    10   ar
     4    10    11   ar
     5    11    12   ar
     6    12    13   ar
     7    13    14   ar
     8    14    15    1
     9    14    16   ar
    10    16     1    1
    11     1     2   ar
    12     2     3   ar
    13     3     4   ar
    14     4    20    1
    15    20    21    1
    16    21    22    1
    17    22    23    1
    18    23    24    1
    19    24    27    1
    20    27    28    1
    21    28    29    1
    22    29    30    1
    23    24    25    1
    24    25    26    1
    25     4     5   ar
    26     5     6   ar
    27    16    17   ar
    28    17    18    2
    29    17    19   ar
    30    19     8   ar
    31    19    12   ar
    32     6     1   ar
    33    26    21    1
    34    30    27    1
