@<TRIPOS>MOLECULE
*****
 21 23 0 0 0
SMALL
GASTEIGER

@<TRIPOS>ATOM
      1 C         142.0616  142.1890  166.5623 C.ar    1  UNL1        0.2601
      2 N         141.1800  142.6856  165.4551 N.ar    1  UNL1       -0.1856
      3 C         142.0441  143.4027  164.4606 C.ar    1  UNL1        0.2213
      4 N         143.4600  143.3492  164.9533 N.ar    1  UNL1       -0.0540
      5 O         143.4707  142.5991  166.2522 O.2     1  UNL1       -0.3324
      6 C         142.0105  139.5281  169.5064 C.ar    1  UNL1        0.0708
      7 C         140.7156  139.8748  170.1793 C.ar    1  UNL1        0.0399
      8 C         139.8693  140.9929  169.6466 C.ar    1  UNL1        0.1410
      9 F         138.5743  141.3395  170.3197 F       1  UNL1       -0.2041
     10 C         140.3180  141.7643  168.4410 C.ar    1  UNL1        0.0344
     11 C         141.6129  141.4176  167.7680 C.ar    1  UNL1        0.0590
     12 C         142.4592  140.2995  168.3007 C.ar    1  UNL1        0.0152
     13 N         143.7030  137.2920  170.5717 N.1     1  UNL1       -0.1908
     14 C         142.8568  138.4101  170.0391 C.1     1  UNL1        0.1005
     15 C         141.5750  144.0582  163.1956 C.ar    1  UNL1        0.1204
     16 C         140.5326  145.1355  163.2511 C.ar    1  UNL1        0.0247
     17 C         140.0635  145.7909  161.9861 C.ar    1  UNL1        0.0329
     18 C         140.6366  145.3691  160.6657 C.ar    1  UNL1        0.1592
     19 F         140.1674  146.0246  159.4007 F       1  UNL1       -0.2025
     20 C         141.6789  144.2918  160.6102 C.ar    1  UNL1        0.1285
     21 N         142.1481  143.6364  161.8752 N.ar    1  UNL1       -0.2383
@<TRIPOS>BOND
     1    13    14    3
     2    14     6    1
     3     6     7   ar
     4     7     8   ar
     5     8     9    1
     6     8    10   ar
     7    10    11   ar
     8    11     1    1
     9     1     2   ar
    10     2     3   ar
    11     3    15    1
    12    15    16   ar
    13    16    17   ar
    14    17    18   ar
    15    18    19    1
    16    18    20   ar
    17    20    21   ar
    18     3     4   ar
    19     4     5   ar
    20    11    12   ar
    21    12     6   ar
    22     5     1   ar
    23    21    15   ar
@<TRIPOS>MOLECULE
*****
 21 23 0 0 0
SMALL
GASTEIGER

@<TRIPOS>ATOM
      1 C         141.9848  139.8952  166.9088 C.ar    1  UNL1        0.2601
      2 N         141.6176  139.8170  165.4565 N.ar    1  UNL1       -0.1856
      3 C         142.6738  139.0166  164.7537 C.ar    1  UNL1        0.2213
      4 N         143.6938  138.6001  165.7717 N.ar    1  UNL1       -0.0540
      5 O         143.2679  139.1431  167.1036 O.2     1  UNL1       -0.3324
      6 C         139.2595  140.6266  169.6994 C.ar    1  UNL1        0.0708
      7 C         139.6473  142.0139  170.1177 C.ar    1  UNL1        0.0399
      8 C         140.8143  142.6949  169.4664 C.ar    1  UNL1        0.1410
      9 F         141.2021  144.0823  169.8847 F       1  UNL1       -0.2041
     10 C         141.5935  141.9887  168.3967 C.ar    1  UNL1        0.0344
     11 C         141.2056  140.6015  167.9785 C.ar    1  UNL1        0.0590
     12 C         140.0386  139.9204  168.6298 C.ar    1  UNL1        0.0152
     13 N         136.9255  139.2645  171.0021 N.1     1  UNL1       -0.1908
     14 C         138.0925  139.9455  170.3508 C.1     1  UNL1        0.1005
     15 C         142.7046  138.6901  163.2901 C.ar    1  UNL1        0.1204
     16 C         144.0050  138.7166  162.5429 C.ar    1  UNL1        0.0247
     17 C         144.0358  138.3901  161.0792 C.ar    1  UNL1        0.0329
     18 C         142.7662  138.0370  160.3627 C.ar    1  UNL1        0.1592
     19 F         142.7970  137.7105  158.8990 F       1  UNL1       -0.2025
     20 C         141.4658  138.0105  161.1099 C.ar    1  UNL1        0.1285
     21 N         141.4350  138.3370  162.5735 N.ar    1  UNL1       -0.2383
@<TRIPOS>BOND
     1    13    14    3
     2    14     6    1
     3     6     7   ar
     4     7     8   ar
     5     8     9    1
     6     8    10   ar
     7    10    11   ar
     8    11     1    1
     9     1     2   ar
    10     2     3   ar
    11     3    15    1
    12    15    16   ar
    13    16    17   ar
    14    17    18   ar
    15    18    19    1
    16    18    20   ar
    17    20    21   ar
    18     3     4   ar
    19     4     5   ar
    20    11    12   ar
    21    12     6   ar
    22     5     1   ar
    23    21    15   ar
@<TRIPOS>MOLECULE
*****
 21 23 0 0 0
SMALL
GASTEIGER

@<TRIPOS>ATOM
      1 C         142.4403  142.4028  165.8567 C.ar    1  UNL1        0.2601
      2 N         141.4690  142.9662  164.8621 N.ar    1  UNL1       -0.1856
      3 C         142.2520  143.4877  163.6938 C.ar    1  UNL1        0.2213
      4 N         143.7073  143.2467  163.9665 N.ar    1  UNL1       -0.0540
      5 O         143.8236  142.5762  165.3032 O.2     1  UNL1       -0.3324
      6 C         140.8441  141.8743  169.4516 C.ar    1  UNL1        0.0708
      7 C         141.3886  140.5227  169.8076 C.ar    1  UNL1        0.0399
      8 C         142.2836  139.7978  168.8466 C.ar    1  UNL1        0.1410
      9 F         142.8281  138.4462  169.2027 F       1  UNL1       -0.2041
     10 C         142.6342  140.4245  167.5297 C.ar    1  UNL1        0.0344
     11 C         142.0897  141.7761  167.1737 C.ar    1  UNL1        0.0590
     12 C         141.1947  142.5010  168.1347 C.ar    1  UNL1        0.0152
     13 N         139.0540  143.3241  171.3735 N.1     1  UNL1       -0.1908
     14 C         139.9490  142.5992  170.4125 C.1     1  UNL1        0.1005
     15 C         141.6803  144.1364  162.4682 C.ar    1  UNL1        0.1204
     16 C         140.6304  145.1993  162.6026 C.ar    1  UNL1        0.0247
     17 C         140.0586  145.8479  161.3769 C.ar    1  UNL1        0.0329
     18 C         140.5368  145.4338  160.0168 C.ar    1  UNL1        0.1592
     19 F         139.9650  146.0824  158.7912 F       1  UNL1       -0.2025
     20 C         141.5867  144.3709  159.8824 C.ar    1  UNL1        0.1285
     21 N         142.1584  143.7222  161.1081 N.ar    1  UNL1       -0.2383
@<TRIPOS>BOND
     1    13    14    3
     2    14     6    1
     3     6     7   ar
     4     7     8   ar
     5     8     9    1
     6     8    10   ar
     7    10    11   ar
     8    11     1    1
     9     1     2   ar
    10     2     3   ar
    11     3    15    1
    12    15    16   ar
    13    16    17   ar
    14    17    18   ar
    15    18    19    1
    16    18    20   ar
    17    20    21   ar
    18     3     4   ar
    19     4     5   ar
    20    11    12   ar
    21    12     6   ar
    22     5     1   ar
    23    21    15   ar
@<TRIPOS>MOLECULE
*****
 21 23 0 0 0
SMALL
GASTEIGER

@<TRIPOS>ATOM
      1 C         142.8499  141.4561  166.3482 C.ar    1  UNL1        0.2601
      2 N         142.4919  140.3269  165.4279 N.ar    1  UNL1       -0.1856
      3 C         143.2337  140.5260  164.1395 C.ar    1  UNL1        0.2213
      4 N         144.0502  141.7782  164.2635 N.ar    1  UNL1       -0.0540
      5 O         143.8130  142.3530  165.6285 O.2     1  UNL1       -0.3324
      6 C         140.5411  141.1948  169.5655 C.ar    1  UNL1        0.0708
      7 C         141.3058  142.0484  170.5332 C.ar    1  UNL1        0.0399
      8 C         142.5851  142.7046  170.1060 C.ar    1  UNL1        0.1410
      9 F         143.3498  143.5583  171.0738 F       1  UNL1       -0.2041
     10 C         143.0999  142.5072  168.7110 C.ar    1  UNL1        0.0344
     11 C         142.3352  141.6535  167.7433 C.ar    1  UNL1        0.0590
     12 C         141.0558  140.9973  168.1705 C.ar    1  UNL1        0.0152
     13 N         137.9823  139.8824  170.4200 N.1     1  UNL1       -0.1908
     14 C         139.2617  140.5386  169.9928 C.1     1  UNL1        0.1005
     15 C         143.1701  139.6302  162.9380 C.ar    1  UNL1        0.1204
     16 C         142.1153  138.5673  162.8499 C.ar    1  UNL1        0.0247
     17 C         142.0518  137.6716  161.6484 C.ar    1  UNL1        0.0329
     18 C         143.0430  137.8387  160.5351 C.ar    1  UNL1        0.1592
     19 F         142.9794  136.9430  159.3336 F       1  UNL1       -0.2025
     20 C         144.0977  138.9016  160.6232 C.ar    1  UNL1        0.1285
     21 N         144.1613  139.7974  161.8246 N.ar    1  UNL1       -0.2383
@<TRIPOS>BOND
     1    13    14    3
     2    14     6    1
     3     6     7   ar
     4     7     8   ar
     5     8     9    1
     6     8    10   ar
     7    10    11   ar
     8    11     1    1
     9     1     2   ar
    10     2     3   ar
    11     3    15    1
    12    15    16   ar
    13    16    17   ar
    14    17    18   ar
    15    18    19    1
    16    18    20   ar
    17    20    21   ar
    18     3     4   ar
    19     4     5   ar
    20    11    12   ar
    21    12     6   ar
    22     5     1   ar
    23    21    15   ar
@<TRIPOS>MOLECULE
*****
 21 23 0 0 0
SMALL
GASTEIGER

@<TRIPOS>ATOM
      1 C         141.2500  139.6419  166.3810 C.ar    1  UNL1        0.2601
      2 N         140.4619  139.7111  165.1066 N.ar    1  UNL1       -0.1856
      3 C         141.2132  138.9498  164.0550 C.ar    1  UNL1        0.2213
      4 N         142.4657  138.4101  164.6795 N.ar    1  UNL1       -0.0540
      5 O         142.4885  138.8378  166.1171 O.2     1  UNL1       -0.3324
      6 C         141.4044  141.8765  169.6572 C.ar    1  UNL1        0.0708
      7 C         140.1009  141.5175  170.3068 C.ar    1  UNL1        0.0399
      8 C         139.1805  140.5333  169.6479 C.ar    1  UNL1        0.1410
      9 F         137.8770  140.1743  170.2976 F       1  UNL1       -0.2041
     10 C         139.5635  139.9081  168.3393 C.ar    1  UNL1        0.0344
     11 C         140.8670  140.2671  167.6897 C.ar    1  UNL1        0.0590
     12 C         141.7874  141.2513  168.3486 C.ar    1  UNL1        0.0152
     13 N         143.2452  143.8448  170.9750 N.1     1  UNL1       -0.1908
     14 C         142.3248  142.8607  170.3161 C.1     1  UNL1        0.1005
     15 C         140.7869  138.7613  162.6293 C.ar    1  UNL1        0.1204
     16 C         139.3735  138.3698  162.3146 C.ar    1  UNL1        0.0247
     17 C         138.9472  138.1813  160.8889 C.ar    1  UNL1        0.0329
     18 C         139.9343  138.3843  159.7778 C.ar    1  UNL1        0.1592
     19 F         139.5081  138.1958  158.3521 F       1  UNL1       -0.2025
     20 C         141.3478  138.7758  160.0926 C.ar    1  UNL1        0.1285
     21 N         141.7740  138.9643  161.5183 N.ar    1  UNL1       -0.2383
@<TRIPOS>BOND
     1    13    14    3
     2    14     6    1
     3     6     7   ar
     4     7     8   ar
     5     8     9    1
     6     8    10   ar
     7    10    11   ar
     8    11     1    1
     9     1     2   ar
    10     2     3   ar
    11     3    15    1
    12    15    16   ar
    13    16    17   ar
    14    17    18   ar
    15    18    19    1
    16    18    20   ar
    17    20    21   ar
    18     3     4   ar
    19     4     5   ar
    20    11    12   ar
    21    12     6   ar
    22     5     1   ar
    23    21    15   ar
@<TRIPOS>MOLECULE
*****
 21 23 0 0 0
SMALL
GASTEIGER

@<TRIPOS>ATOM
      1 C         141.3574  139.7347  166.4692 C.ar    1  UNL1        0.2601
      2 N         140.3604  140.2350  165.4662 N.ar    1  UNL1       -0.1856
      3 C         140.4465  139.3600  164.2509 C.ar    1  UNL1        0.2213
      4 N         141.4967  138.3190  164.5027 N.ar    1  UNL1       -0.0540
      5 O         142.0596  138.5505  165.8737 O.2     1  UNL1       -0.3324
      6 C         141.2517  142.2177  169.5632 C.ar    1  UNL1        0.0708
      7 C         142.1094  141.4800  170.5481 C.ar    1  UNL1        0.0399
      8 C         142.7164  140.1605  170.1734 C.ar    1  UNL1        0.1410
      9 F         143.5741  139.4228  171.1584 F       1  UNL1       -0.2041
     10 C         142.4658  139.5787  168.8138 C.ar    1  UNL1        0.0344
     11 C         141.6081  140.3165  167.8289 C.ar    1  UNL1        0.0590
     12 C         141.0010  141.6360  168.2036 C.ar    1  UNL1        0.0152
     13 N         140.0376  144.8568  170.3127 N.1     1  UNL1       -0.1908
     14 C         140.6446  143.5373  169.9379 C.1     1  UNL1        0.1005
     15 C         139.6264  139.5013  163.0029 C.ar    1  UNL1        0.1204
     16 C         139.6733  138.4341  161.9498 C.ar    1  UNL1        0.0247
     17 C         138.8533  138.5754  160.7019 C.ar    1  UNL1        0.0329
     18 C         137.9863  139.7838  160.5070 C.ar    1  UNL1        0.1592
     19 F         137.1662  139.9251  159.2590 F       1  UNL1       -0.2025
     20 C         137.9393  140.8510  161.5601 C.ar    1  UNL1        0.1285
     21 N         138.7594  140.7097  162.8080 N.ar    1  UNL1       -0.2383
@<TRIPOS>BOND
     1    13    14    3
     2    14     6    1
     3     6     7   ar
     4     7     8   ar
     5     8     9    1
     6     8    10   ar
     7    10    11   ar
     8    11     1    1
     9     1     2   ar
    10     2     3   ar
    11     3    15    1
    12    15    16   ar
    13    16    17   ar
    14    17    18   ar
    15    18    19    1
    16    18    20   ar
    17    20    21   ar
    18     3     4   ar
    19     4     5   ar
    20    11    12   ar
    21    12     6   ar
    22     5     1   ar
    23    21    15   ar
@<TRIPOS>MOLECULE
*****
 21 23 0 0 0
SMALL
GASTEIGER

@<TRIPOS>ATOM
      1 C         140.8347  139.8112  166.4459 C.ar    1  UNL1        0.2601
      2 N         141.7345  139.6630  165.2549 N.ar    1  UNL1       -0.1856
      3 C         140.9404  139.0326  164.1495 C.ar    1  UNL1        0.2213
      4 N         139.5497  138.7912  164.6573 N.ar    1  UNL1       -0.0540
      5 O         139.4844  139.2724  166.0765 O.2     1  UNL1       -0.3324
      6 C         141.0598  142.3158  169.5162 C.ar    1  UNL1        0.0708
      7 C         141.9842  141.5645  170.4277 C.ar    1  UNL1        0.0399
      8 C         142.5255  140.2287  170.0119 C.ar    1  UNL1        0.1410
      9 F         143.4500  139.4774  170.9235 F       1  UNL1       -0.2041
     10 C         142.1424  139.6443  168.6847 C.ar    1  UNL1        0.0344
     11 C         141.2179  140.3956  167.7732 C.ar    1  UNL1        0.0590
     12 C         140.6766  141.7313  168.1889 C.ar    1  UNL1        0.0152
     13 N         139.9772  144.9872  170.3476 N.1     1  UNL1       -0.1908
     14 C         140.5185  143.6515  169.9319 C.1     1  UNL1        0.1005
     15 C         141.4478  138.7017  162.7773 C.ar    1  UNL1        0.1204
     16 C         142.8709  138.2665  162.5886 C.ar    1  UNL1        0.0247
     17 C         143.3783  137.9356  161.2164 C.ar    1  UNL1        0.0329
     18 C         142.4626  138.0399  160.0329 C.ar    1  UNL1        0.1592
     19 F         142.9700  137.7090  158.6606 F       1  UNL1       -0.2025
     20 C         141.0396  138.4751  160.2216 C.ar    1  UNL1        0.1285
     21 N         140.5322  138.8060  161.5938 N.ar    1  UNL1       -0.2383
@<TRIPOS>BOND
     1    13    14    3
     2    14     6    1
     3     6     7   ar
     4     7     8   ar
     5     8     9    1
     6     8    10   ar
     7    10    11   ar
     8    11     1    1
     9     1     2   ar
    10     2     3   ar
    11     3    15    1
    12    15    16   ar
    13    16    17   ar
    14    17    18   ar
    15    18    19    1
    16    18    20   ar
    17    20    21   ar
    18     3     4   ar
    19     4     5   ar
    20    11    12   ar
    21    12     6   ar
    22     5     1   ar
    23    21    15   ar
@<TRIPOS>MOLECULE
*****
 21 23 0 0 0
SMALL
GASTEIGER

@<TRIPOS>ATOM
      1 C         141.2409  142.0980  165.4298 C.ar    1  UNL1        0.2601
      2 N         140.5663  142.6839  164.2249 N.ar    1  UNL1       -0.1856
      3 C         141.6278  143.2493  163.3284 C.ar    1  UNL1        0.2213
      4 N         142.9584  143.0127  163.9793 N.ar    1  UNL1       -0.0540
      5 O         142.7193  142.3012  165.2780 O.2     1  UNL1       -0.3324
      6 C         140.1106  141.2426  169.1366 C.ar    1  UNL1        0.0708
      7 C         139.1895  140.0843  168.8920 C.ar    1  UNL1        0.0399
      8 C         138.9522  139.5972  167.4933 C.ar    1  UNL1        0.1410
      9 F         138.0310  138.4389  167.2486 F       1  UNL1       -0.2041
     10 C         139.6360  140.2685  166.3392 C.ar    1  UNL1        0.0344
     11 C         140.5570  141.4267  166.5839 C.ar    1  UNL1        0.0590
     12 C         140.7944  141.9138  167.9826 C.ar    1  UNL1        0.0152
     13 N         140.5852  142.2168  171.9341 N.1     1  UNL1       -0.1908
     14 C         140.3479  141.7297  170.5354 C.1     1  UNL1        0.1005
     15 C         141.3989  143.9313  162.0123 C.ar    1  UNL1        0.1204
     16 C         140.4431  145.0838  161.9210 C.ar    1  UNL1        0.0247
     17 C         140.2142  145.7659  160.6048 C.ar    1  UNL1        0.0329
     18 C         140.9411  145.2955  159.3799 C.ar    1  UNL1        0.1592
     19 F         140.7121  145.9776  158.0637 F       1  UNL1       -0.2025
     20 C         141.8968  144.1430  159.4712 C.ar    1  UNL1        0.1285
     21 N         142.1257  143.4609  160.7874 N.ar    1  UNL1       -0.2383
@<TRIPOS>BOND
     1    13    14    3
     2    14     6    1
     3     6     7   ar
     4     7     8   ar
     5     8     9    1
     6     8    10   ar
     7    10    11   ar
     8    11     1    1
     9     1     2   ar
    10     2     3   ar
    11     3    15    1
    12    15    16   ar
    13    16    17   ar
    14    17    18   ar
    15    18    19    1
    16    18    20   ar
    17    20    21   ar
    18     3     4   ar
    19     4     5   ar
    20    11    12   ar
    21    12     6   ar
    22     5     1   ar
    23    21    15   ar
@<TRIPOS>MOLECULE
*****
 21 23 0 0 0
SMALL
GASTEIGER

@<TRIPOS>ATOM
      1 C         141.5577  142.1852  166.1189 C.ar    1  UNL1        0.2601
      2 N         140.9214  143.2057  165.2224 N.ar    1  UNL1       -0.1856
      3 C         141.4291  142.9796  163.8291 C.ar    1  UNL1        0.2213
      4 N         142.3792  141.8194  163.8646 N.ar    1  UNL1       -0.0540
      5 O         142.4587  141.3285  165.2798 O.2     1  UNL1       -0.3324
      6 C         139.9296  141.1297  169.5809 C.ar    1  UNL1        0.0708
      7 C         140.8821  141.7675  170.5482 C.ar    1  UNL1        0.0399
      8 C         142.0598  142.5446  170.0392 C.ar    1  UNL1        0.1410
      9 F         143.0123  143.1825  171.0067 F       1  UNL1       -0.2041
     10 C         142.2850  142.6839  168.5628 C.ar    1  UNL1        0.0344
     11 C         141.3325  142.0460  167.5954 C.ar    1  UNL1        0.0590
     12 C         140.1548  141.2689  168.1045 C.ar    1  UNL1        0.0152
     13 N         137.5742  139.5754  170.5990 N.1     1  UNL1       -0.1908
     14 C         138.7519  140.3525  170.0899 C.1     1  UNL1        0.1005
     15 C         141.0528  143.7742  162.6138 C.ar    1  UNL1        0.1204
     16 C         141.3537  143.2392  161.2451 C.ar    1  UNL1        0.0247
     17 C         140.9774  144.0337  160.0298 C.ar    1  UNL1        0.0329
     18 C         140.3002  145.3633  160.1832 C.ar    1  UNL1        0.1592
     19 F         139.9239  146.1579  158.9679 F       1  UNL1       -0.2025
     20 C         139.9993  145.8984  161.5518 C.ar    1  UNL1        0.1285
     21 N         140.3756  145.1038  162.7672 N.ar    1  UNL1       -0.2383
@<TRIPOS>BOND
     1    13    14    3
     2    14     6    1
     3     6     7   ar
     4     7     8   ar
     5     8     9    1
     6     8    10   ar
     7    10    11   ar
     8    11     1    1
     9     1     2   ar
    10     2     3   ar
    11     3    15    1
    12    15    16   ar
    13    16    17   ar
    14    17    18   ar
    15    18    19    1
    16    18    20   ar
    17    20    21   ar
    18     3     4   ar
    19     4     5   ar
    20    11    12   ar
    21    12     6   ar
    22     5     1   ar
    23    21    15   ar
