@<TRIPOS>MOLECULE
*****
 33 38 0 0 0
SMALL
GASTEIGER

@<TRIPOS>ATOM
      1 O         137.7014  143.1878  161.2830 O.2     1  UNL1       -0.2443
      2 C         138.7090  142.5144  160.3990 C.ar    1  UNL1        0.3532
      3 N         138.7438  141.0177  160.3061 N.ar    1  UNL1       -0.2701
      4 C         139.7513  140.3444  159.4222 C.ar    1  UNL1        0.0965
      5 S         140.0231  138.8983  159.1302 S.2     1  UNL1       -0.0728
      6 C         141.1637  138.8280  158.1587 C.ar    1  UNL1        0.0210
      7 C         141.5970  140.2306  157.8502 C.ar    1  UNL1       -0.0126
      8 C         140.7241  141.1677  158.6310 C.ar    1  UNL1        0.0545
      9 C         140.6893  142.6644  158.7240 C.ar    1  UNL1        0.1717
     10 N         141.5157  143.7302  158.0674 N.ar    1  UNL1       -0.2032
     11 C         141.0189  145.0623  158.5456 C.ar    1  UNL1        0.2214
     12 N         139.8855  144.8198  159.4977 N.ar    1  UNL1       -0.1372
     13 N         139.6818  143.3378  159.6079 N.ar    1  UNL1       -0.1606
     14 C         142.7305  140.4731  156.8981 C.3     1  UNL1        0.0441
     15 C         143.4306  139.3131  156.2545 C.3     1  UNL1        0.0771
     16 N         142.9973  137.9106  156.5631 N.3     1  UNL1       -0.2682
     17 C         141.8640  137.6680  157.5151 C.3     1  UNL1        0.1054
     18 C         137.7710  140.1944  161.0973 C.3     1  UNL1        0.1400
     19 C         138.0314  139.9140  162.5476 C.ar    1  UNL1        0.0281
     20 C         137.7721  140.9755  163.5752 C.ar    1  UNL1        0.0007
     21 C         138.0325  140.6951  165.0255 C.ar    1  UNL1        0.0113
     22 C         138.5524  139.3530  165.4483 C.ar    1  UNL1        0.0599
     23 CL        138.8129  139.0726  166.8987 Cl      1  UNL1       -0.0822
     24 C         138.8117  138.2915  164.4208 C.ar    1  UNL1        0.0408
     25 C         138.5513  138.5720  162.9704 C.ar    1  UNL1        0.1388
     26 F         138.8106  137.5104  161.9429 F       1  UNL1       -0.2044
     27 C         143.6976  136.7506  155.9194 C.3     1  UNL1        0.0725
     28 C         143.1258  135.3692  156.0391 C.3     1  UNL1        0.0210
     29 C         141.9690  134.9589  155.1769 C.3     1  UNL1        0.0335
     30 C         141.3972  133.5773  155.2966 C.3     1  UNL1        0.1422
     31 O         141.9822  132.6060  156.2786 O.3     1  UNL1       -0.3538
     32 C         143.1390  133.0163  157.1409 C.3     1  UNL1        0.1422
     33 C         143.7108  134.3978  157.0212 C.3     1  UNL1        0.0335
@<TRIPOS>BOND
     1     1     2    2
     2     2     3   ar
     3     3    18    1
     4    18    19    1
     5    19    20   ar
     6    20    21   ar
     7    21    22   ar
     8    22    23    1
     9    22    24   ar
    10    24    25   ar
    11    25    26    1
    12     3     4   ar
    13     4     5   ar
    14     5     6   ar
    15     6     7   ar
    16     7     8   ar
    17     8     9   ar
    18     9    10   ar
    19    10    11   ar
    20    11    12   ar
    21    12    13   ar
    22     7    14    1
    23    14    15    1
    24    15    16    1
    25    16    27    1
    26    27    28    1
    27    28    29    1
    28    29    30    1
    29    30    31    1
    30    31    32    1
    31    32    33    1
    32    16    17    1
    33    13     2   ar
    34    33    28    1
    35    25    19   ar
    36     8     4   ar
    37    13     9   ar
    38    17     6    1
@<TRIPOS>MOLECULE
*****
 33 38 0 0 0
SMALL
GASTEIGER

@<TRIPOS>ATOM
      1 O         144.1205  142.9337  169.2269 O.2     1  UNL1       -0.2443
      2 C         143.1201  142.1374  168.4426 C.ar    1  UNL1        0.3532
      3 N         143.0983  142.2267  166.9454 N.ar    1  UNL1       -0.2701
      4 C         142.0980  141.4305  166.1611 C.ar    1  UNL1        0.0965
      5 S         141.8391  141.3159  164.6879 S.2     1  UNL1       -0.0728
      6 C         140.7005  140.3597  164.4904 C.ar    1  UNL1        0.0210
      7 C         140.2556  139.8832  165.8414 C.ar    1  UNL1       -0.0126
      8 C         141.1192  140.5450  166.8739 C.ar    1  UNL1        0.0545
      9 C         141.1410  140.4558  168.3711 C.ar    1  UNL1        0.1717
     10 N         140.3064  139.6745  169.3421 N.ar    1  UNL1       -0.2032
     11 C         140.7910  139.9879  170.7267 C.ar    1  UNL1        0.2214
     12 N         141.9251  140.9628  170.6113 N.ar    1  UNL1       -0.1372
     13 N         142.1414  141.2520  169.1554 N.ar    1  UNL1       -0.1606
     14 C         139.1215  138.9083  165.9568 C.3     1  UNL1        0.0441
     15 C         138.4323  138.4098  164.7213 C.3     1  UNL1        0.0771
     16 N         138.8772  138.8863  163.3703 N.3     1  UNL1       -0.2682
     17 C         140.0113  139.8612  163.2548 C.3     1  UNL1        0.1054
     18 C         144.0771  143.1122  166.2326 C.3     1  UNL1        0.1400
     19 C         144.2918  142.9568  164.7562 C.ar    1  UNL1        0.0281
     20 C         145.1431  141.8367  164.2358 C.ar    1  UNL1        0.0007
     21 C         145.3578  141.6813  162.7595 C.ar    1  UNL1        0.0113
     22 C         144.7212  142.6461  161.8034 C.ar    1  UNL1        0.0599
     23 CL        144.9360  142.4907  160.3270 Cl      1  UNL1       -0.0822
     24 C         143.8700  143.7661  162.3236 C.ar    1  UNL1        0.0408
     25 C         143.6553  143.9215  163.8001 C.ar    1  UNL1        0.1388
     26 F         142.8041  145.0417  164.3204 F       1  UNL1       -0.2044
     27 C         138.1880  138.3878  162.1348 C.3     1  UNL1        0.0725
     28 C         138.5369  138.9669  160.7959 C.3     1  UNL1        0.0210
     29 C         139.6602  138.3793  159.9942 C.3     1  UNL1        0.0335
     30 C         140.0092  138.9584  158.6553 C.3     1  UNL1        0.1422
     31 O         139.2347  140.1253  158.1180 O.3     1  UNL1       -0.3538
     32 C         138.1113  140.7129  158.9197 C.3     1  UNL1        0.1422
     33 C         137.7624  140.1338  160.2585 C.3     1  UNL1        0.0335
@<TRIPOS>BOND
     1     1     2    2
     2     2     3   ar
     3     3    18    1
     4    18    19    1
     5    19    20   ar
     6    20    21   ar
     7    21    22   ar
     8    22    23    1
     9    22    24   ar
    10    24    25   ar
    11    25    26    1
    12     3     4   ar
    13     4     5   ar
    14     5     6   ar
    15     6     7   ar
    16     7     8   ar
    17     8     9   ar
    18     9    10   ar
    19    10    11   ar
    20    11    12   ar
    21    12    13   ar
    22     7    14    1
    23    14    15    1
    24    15    16    1
    25    16    27    1
    26    27    28    1
    27    28    29    1
    28    29    30    1
    29    30    31    1
    30    31    32    1
    31    32    33    1
    32    16    17    1
    33    13     2   ar
    34    33    28    1
    35    25    19   ar
    36     8     4   ar
    37    13     9   ar
    38    17     6    1
@<TRIPOS>MOLECULE
*****
 33 38 0 0 0
SMALL
GASTEIGER

@<TRIPOS>ATOM
      1 O         141.8933  145.6632  159.0446 O.2     1  UNL1       -0.2443
      2 C         140.7931  145.0064  158.2648 C.ar    1  UNL1        0.3532
      3 N         140.1852  143.7267  158.7575 N.ar    1  UNL1       -0.2701
      4 C         139.0850  143.0700  157.9777 C.ar    1  UNL1        0.0965
      5 S         138.2992  141.8140  158.2133 S.2     1  UNL1       -0.0728
      6 C         137.3212  141.6609  157.0864 C.ar    1  UNL1        0.0210
      7 C         137.5025  142.8222  156.1543 C.ar    1  UNL1       -0.0126
      8 C         138.5925  143.6930  156.7051 C.ar    1  UNL1        0.0545
      9 C         139.2003  144.9727  156.2124 C.ar    1  UNL1        0.1717
     10 N         138.9236  145.8146  155.0022 N.ar    1  UNL1       -0.2032
     11 C         139.8529  146.9916  155.0340 C.ar    1  UNL1        0.2214
     12 N         140.7039  146.8772  156.2639 N.ar    1  UNL1       -0.1372
     13 N         140.3006  145.6295  156.9923 N.ar    1  UNL1       -0.1606
     14 C         136.6515  142.9365  154.9244 C.3     1  UNL1        0.0441
     15 C         135.6192  141.8897  154.6265 C.3     1  UNL1        0.0771
     16 N         135.4380  140.7286  155.5586 N.3     1  UNL1       -0.2682
     17 C         136.2890  140.6141  156.7885 C.3     1  UNL1        0.1054
     18 C         140.6778  143.1037  160.0301 C.3     1  UNL1        0.1400
     19 C         140.1482  143.5777  161.3510 C.ar    1  UNL1        0.0281
     20 C         138.7220  143.3065  161.7284 C.ar    1  UNL1        0.0007
     21 C         138.1925  143.7805  163.0493 C.ar    1  UNL1        0.0113
     22 C         139.0893  144.5257  163.9930 C.ar    1  UNL1        0.0599
     23 CL        138.5598  144.9997  165.3139 Cl      1  UNL1       -0.0822
     24 C         140.5154  144.7969  163.6157 C.ar    1  UNL1        0.0408
     25 C         141.0450  144.3229  162.2947 C.ar    1  UNL1        0.1388
     26 F         142.4712  144.5941  161.9174 F       1  UNL1       -0.2044
     27 C         134.4058  139.6817  155.2607 C.3     1  UNL1        0.0725
     28 C         133.1161  139.6608  156.0264 C.3     1  UNL1        0.0210
     29 C         132.0416  140.6594  155.7131 C.3     1  UNL1        0.0335
     30 C         130.7519  140.6385  156.4788 C.3     1  UNL1        0.1422
     31 O         130.5368  139.6189  157.5578 O.3     1  UNL1       -0.3538
     32 C         131.6113  138.6204  157.8711 C.3     1  UNL1        0.1422
     33 C         132.9009  138.6413  157.1055 C.3     1  UNL1        0.0335
@<TRIPOS>BOND
     1     1     2    2
     2     2     3   ar
     3     3    18    1
     4    18    19    1
     5    19    20   ar
     6    20    21   ar
     7    21    22   ar
     8    22    23    1
     9    22    24   ar
    10    24    25   ar
    11    25    26    1
    12     3     4   ar
    13     4     5   ar
    14     5     6   ar
    15     6     7   ar
    16     7     8   ar
    17     8     9   ar
    18     9    10   ar
    19    10    11   ar
    20    11    12   ar
    21    12    13   ar
    22     7    14    1
    23    14    15    1
    24    15    16    1
    25    16    27    1
    26    27    28    1
    27    28    29    1
    28    29    30    1
    29    30    31    1
    30    31    32    1
    31    32    33    1
    32    16    17    1
    33    13     2   ar
    34    33    28    1
    35    25    19   ar
    36     8     4   ar
    37    13     9   ar
    38    17     6    1
@<TRIPOS>MOLECULE
*****
 33 38 0 0 0
SMALL
GASTEIGER

@<TRIPOS>ATOM
      1 O         138.9147  140.0343  169.8162 O.2     1  UNL1       -0.2443
      2 C         139.9619  140.5616  168.8805 C.ar    1  UNL1        0.3532
      3 N         139.9060  140.2172  167.4217 N.ar    1  UNL1       -0.2701
      4 C         140.9531  140.7444  166.4860 C.ar    1  UNL1        0.0965
      5 S         141.1566  140.5755  165.0094 S.2     1  UNL1       -0.0728
      6 C         142.3853  141.3427  164.6201 C.ar    1  UNL1        0.0210
      7 C         142.9412  141.9859  165.8560 C.ar    1  UNL1       -0.0126
      8 C         142.0561  141.6161  167.0091 C.ar    1  UNL1        0.0545
      9 C         142.1120  141.9605  168.4680 C.ar    1  UNL1        0.1717
     10 N         143.0719  142.7911  169.2671 N.ar    1  UNL1       -0.2032
     11 C         142.6180  142.7772  170.6967 C.ar    1  UNL1        0.2214
     12 N         141.3776  141.9380  170.7811 N.ar    1  UNL1       -0.1372
     13 N         141.0648  141.4332  169.4037 N.ar    1  UNL1       -0.1606
     14 C         144.1816  142.8251  165.7716 C.3     1  UNL1        0.0441
     15 C         144.8661  143.0212  164.4513 C.3     1  UNL1        0.0771
     16 N         144.3101  142.3781  163.2155 N.3     1  UNL1       -0.2682
     17 C         143.0698  141.5389  163.2998 C.3     1  UNL1        0.1054
     18 C         138.8030  139.3455  166.8985 C.3     1  UNL1        0.1400
     19 C         138.5162  139.3012  165.4269 C.ar    1  UNL1        0.0281
     20 C         137.9050  140.4896  164.7457 C.ar    1  UNL1        0.0007
     21 C         137.6181  140.4453  163.2740 C.ar    1  UNL1        0.0113
     22 C         137.9425  139.2123  162.4836 C.ar    1  UNL1        0.0599
     23 CL        137.6556  139.1680  161.0119 Cl      1  UNL1       -0.0822
     24 C         138.5536  138.0239  163.1647 C.ar    1  UNL1        0.0408
     25 C         138.8405  138.0683  164.6364 C.ar    1  UNL1        0.1388
     26 F         139.4517  136.8798  165.3176 F       1  UNL1       -0.2044
     27 C         144.9947  142.5742  161.8952 C.3     1  UNL1        0.0725
     28 C         144.1866  142.8838  160.6701 C.3     1  UNL1        0.0210
     29 C         144.6808  142.4601  159.3187 C.3     1  UNL1        0.0335
     30 C         143.8727  142.7697  158.0936 C.3     1  UNL1        0.1422
     31 O         142.5702  143.5029  158.2197 O.3     1  UNL1       -0.3538
     32 C         142.0759  143.9266  159.5711 C.3     1  UNL1        0.1422
     33 C         142.8840  143.6171  160.7962 C.3     1  UNL1        0.0335
@<TRIPOS>BOND
     1     1     2    2
     2     2     3   ar
     3     3    18    1
     4    18    19    1
     5    19    20   ar
     6    20    21   ar
     7    21    22   ar
     8    22    23    1
     9    22    24   ar
    10    24    25   ar
    11    25    26    1
    12     3     4   ar
    13     4     5   ar
    14     5     6   ar
    15     6     7   ar
    16     7     8   ar
    17     8     9   ar
    18     9    10   ar
    19    10    11   ar
    20    11    12   ar
    21    12    13   ar
    22     7    14    1
    23    14    15    1
    24    15    16    1
    25    16    27    1
    26    27    28    1
    27    28    29    1
    28    29    30    1
    29    30    31    1
    30    31    32    1
    31    32    33    1
    32    16    17    1
    33    13     2   ar
    34    33    28    1
    35    25    19   ar
    36     8     4   ar
    37    13     9   ar
    38    17     6    1
@<TRIPOS>MOLECULE
*****
 33 38 0 0 0
SMALL
GASTEIGER

@<TRIPOS>ATOM
      1 O         141.9629  144.1258  158.2727 O.2     1  UNL1       -0.2443
      2 C         141.8668  143.7747  159.7279 C.ar    1  UNL1        0.3532
      3 N         142.6198  142.5943  160.2659 N.ar    1  UNL1       -0.2701
      4 C         142.5237  142.2432  161.7210 C.ar    1  UNL1        0.0965
      5 S         143.1469  141.1459  162.5321 S.2     1  UNL1       -0.0728
      6 C         142.6829  141.2971  163.9504 C.ar    1  UNL1        0.0210
      7 C         141.7729  142.4878  164.0160 C.ar    1  UNL1       -0.0126
      8 C         141.6745  143.0725  162.6382 C.ar    1  UNL1        0.0545
      9 C         140.9215  144.2529  162.1002 C.ar    1  UNL1        0.1717
     10 N         140.0120  145.2479  162.7580 N.ar    1  UNL1       -0.2032
     11 C         139.5460  146.2140  161.7094 C.ar    1  UNL1        0.2214
     12 N         140.1675  145.8161  160.4035 N.ar    1  UNL1       -0.1372
     13 N         141.0176  144.6040  160.6450 N.ar    1  UNL1       -0.1606
     14 C         141.1514  142.8858  165.3220 C.3     1  UNL1        0.0441
     15 C         141.4399  142.0931  166.5623 C.3     1  UNL1        0.0771
     16 N         142.3498  140.9024  166.4967 N.3     1  UNL1       -0.2682
     17 C         142.9713  140.5044  165.1908 C.3     1  UNL1        0.1054
     18 C         143.4690  141.7650  159.3487 C.3     1  UNL1        0.1400
     19 C         142.8895  140.5528  158.6817 C.ar    1  UNL1        0.0281
     20 C         141.9151  140.7118  157.5524 C.ar    1  UNL1        0.0007
     21 C         141.3356  139.4997  156.8854 C.ar    1  UNL1        0.0113
     22 C         141.7306  138.1284  157.3478 C.ar    1  UNL1        0.0599
     23 CL        141.1511  136.9163  156.6808 Cl      1  UNL1       -0.0822
     24 C         142.7049  137.9693  158.4771 C.ar    1  UNL1        0.0408
     25 C         143.2844  139.1816  159.1441 C.ar    1  UNL1        0.1388
     26 F         144.2587  139.0225  160.2734 F       1  UNL1       -0.2044
     27 C         142.6382  140.1097  167.7371 C.3     1  UNL1        0.0725
     28 C         141.9944  140.4905  169.0371 C.3     1  UNL1        0.0210
     29 C         140.7007  139.8524  169.4486 C.3     1  UNL1        0.0335
     30 C         140.0569  140.2332  170.7488 C.3     1  UNL1        0.1422
     31 O         140.7066  141.2521  171.6374 O.3     1  UNL1       -0.3538
     32 C         142.0002  141.8902  171.2259 C.3     1  UNL1        0.1422
     33 C         142.6441  141.5094  169.9259 C.3     1  UNL1        0.0335
@<TRIPOS>BOND
     1     1     2    2
     2     2     3   ar
     3     3    18    1
     4    18    19    1
     5    19    20   ar
     6    20    21   ar
     7    21    22   ar
     8    22    23    1
     9    22    24   ar
    10    24    25   ar
    11    25    26    1
    12     3     4   ar
    13     4     5   ar
    14     5     6   ar
    15     6     7   ar
    16     7     8   ar
    17     8     9   ar
    18     9    10   ar
    19    10    11   ar
    20    11    12   ar
    21    12    13   ar
    22     7    14    1
    23    14    15    1
    24    15    16    1
    25    16    27    1
    26    27    28    1
    27    28    29    1
    28    29    30    1
    29    30    31    1
    30    31    32    1
    31    32    33    1
    32    16    17    1
    33    13     2   ar
    34    33    28    1
    35    25    19   ar
    36     8     4   ar
    37    13     9   ar
    38    17     6    1
@<TRIPOS>MOLECULE
*****
 33 38 0 0 0
SMALL
GASTEIGER

@<TRIPOS>ATOM
      1 O         138.8223  140.0818  166.2310 O.2     1  UNL1       -0.2443
      2 C         139.2056  140.6376  164.8915 C.ar    1  UNL1        0.3532
      3 N         139.6326  142.0702  164.7684 N.ar    1  UNL1       -0.2701
      4 C         140.0160  142.6261  163.4290 C.ar    1  UNL1        0.0965
      5 S         140.4744  143.9890  163.0017 S.2     1  UNL1       -0.0728
      6 C         140.7141  143.9545  161.5215 C.ar    1  UNL1        0.0210
      7 C         140.4038  142.5702  161.0338 C.ar    1  UNL1       -0.0126
      8 C         139.9723  141.7493  162.2127 C.ar    1  UNL1        0.0545
      9 C         139.5453  140.3167  162.3358 C.ar    1  UNL1        0.1717
     10 N         139.4054  139.2204  161.3217 N.ar    1  UNL1       -0.2032
     11 C         138.9355  137.9869  162.0343 C.ar    1  UNL1        0.2214
     12 N         138.7851  138.3209  163.4889 N.ar    1  UNL1       -0.1372
     13 N         139.1620  139.7608  163.6753 N.ar    1  UNL1       -0.1606
     14 C         140.5542  142.2363  159.5792 C.3     1  UNL1        0.0441
     15 C         141.0150  143.2864  158.6123 C.3     1  UNL1        0.0771
     16 N         141.3252  144.6705  159.1000 N.3     1  UNL1       -0.2682
     17 C         141.1749  145.0046  160.5545 C.3     1  UNL1        0.1054
     18 C         139.6762  142.9470  165.9847 C.3     1  UNL1        0.1400
     19 C         140.7716  142.7742  166.9949 C.ar    1  UNL1        0.0281
     20 C         140.4883  142.9876  168.4524 C.ar    1  UNL1        0.0007
     21 C         141.5836  142.8147  169.4625 C.ar    1  UNL1        0.0113
     22 C         142.9623  142.4284  169.0151 C.ar    1  UNL1        0.0599
     23 CL        144.0576  142.2556  170.0252 Cl      1  UNL1       -0.0822
     24 C         143.2456  142.2151  167.5577 C.ar    1  UNL1        0.0408
     25 C         142.1502  142.3879  166.5475 C.ar    1  UNL1        0.1388
     26 F         142.4335  142.1745  165.0901 F       1  UNL1       -0.2044
     27 C         141.7860  145.7207  158.1330 C.3     1  UNL1        0.0725
     28 C         141.0985  145.8743  156.8088 C.3     1  UNL1        0.0210
     29 C         141.7549  145.3662  155.5594 C.3     1  UNL1        0.0335
     30 C         141.0673  145.5199  154.2352 C.3     1  UNL1        0.1422
     31 O         139.7233  146.1816  154.1603 O.3     1  UNL1       -0.3538
     32 C         139.0669  146.6897  155.4096 C.3     1  UNL1        0.1422
     33 C         139.7544  146.5361  156.7338 C.3     1  UNL1        0.0335
@<TRIPOS>BOND
     1     1     2    2
     2     2     3   ar
     3     3    18    1
     4    18    19    1
     5    19    20   ar
     6    20    21   ar
     7    21    22   ar
     8    22    23    1
     9    22    24   ar
    10    24    25   ar
    11    25    26    1
    12     3     4   ar
    13     4     5   ar
    14     5     6   ar
    15     6     7   ar
    16     7     8   ar
    17     8     9   ar
    18     9    10   ar
    19    10    11   ar
    20    11    12   ar
    21    12    13   ar
    22     7    14    1
    23    14    15    1
    24    15    16    1
    25    16    27    1
    26    27    28    1
    27    28    29    1
    28    29    30    1
    29    30    31    1
    30    31    32    1
    31    32    33    1
    32    16    17    1
    33    13     2   ar
    34    33    28    1
    35    25    19   ar
    36     8     4   ar
    37    13     9   ar
    38    17     6    1
@<TRIPOS>MOLECULE
*****
 33 38 0 0 0
SMALL
GASTEIGER

@<TRIPOS>ATOM
      1 O         143.4431  142.4125  166.8860 O.2     1  UNL1       -0.2443
      2 C         143.4074  141.9337  165.4650 C.ar    1  UNL1        0.3532
      3 N         143.1509  140.4860  165.1676 N.ar    1  UNL1       -0.2701
      4 C         143.1152  140.0071  163.7466 C.ar    1  UNL1        0.0965
      5 S         142.8865  138.6498  163.1502 S.2     1  UNL1       -0.0728
      6 C         142.9660  138.7797  161.6581 C.ar    1  UNL1        0.0210
      7 C         143.2439  140.2174  161.3321 C.ar    1  UNL1       -0.0126
      8 C         143.3361  140.9759  162.6228 C.ar    1  UNL1        0.0545
      9 C         143.5926  142.4235  162.9202 C.ar    1  UNL1        0.1717
     10 N         143.8437  143.6024  162.0273 N.ar    1  UNL1       -0.2032
     11 C         144.0346  144.8098  162.8965 C.ar    1  UNL1        0.2214
     12 N         143.9015  144.3773  164.3266 N.ar    1  UNL1       -0.1372
     13 N         143.6283  142.9024  164.3413 N.ar    1  UNL1       -0.1606
     14 C         143.3770  140.6499  159.9020 C.3     1  UNL1        0.0441
     15 C         143.2323  139.6449  158.7979 C.3     1  UNL1        0.0771
     16 N         142.9545  138.2074  159.1239 N.3     1  UNL1       -0.2682
     17 C         142.8213  137.7748  160.5539 C.3     1  UNL1        0.1054
     18 C         142.9301  139.5172  166.2914 C.3     1  UNL1        0.1400
     19 C         141.7539  139.6861  167.2069 C.ar    1  UNL1        0.0281
     20 C         140.3613  139.6705  166.6496 C.ar    1  UNL1        0.0007
     21 C         139.1851  139.8394  167.5651 C.ar    1  UNL1        0.0113
     22 C         139.4016  140.0240  169.0379 C.ar    1  UNL1        0.0599
     23 CL        138.2255  140.1929  169.9534 Cl      1  UNL1       -0.0822
     24 C         140.7941  140.0396  169.5952 C.ar    1  UNL1        0.0408
     25 C         141.9703  139.8707  168.6796 C.ar    1  UNL1        0.1388
     26 F         143.3628  139.8864  169.2369 F       1  UNL1       -0.2044
     27 C         142.8098  137.2024  158.0196 C.3     1  UNL1        0.0725
     28 C         141.8674  137.4673  156.8832 C.3     1  UNL1        0.0210
     29 C         142.3933  137.5767  155.4827 C.3     1  UNL1        0.0335
     30 C         141.4508  137.8416  154.3462 C.3     1  UNL1        0.1422
     31 O         139.9824  137.9971  154.6103 O.3     1  UNL1       -0.3538
     32 C         139.4565  137.8876  156.0108 C.3     1  UNL1        0.1422
     33 C         140.3989  137.6228  157.1472 C.3     1  UNL1        0.0335
@<TRIPOS>BOND
     1     1     2    2
     2     2     3   ar
     3     3    18    1
     4    18    19    1
     5    19    20   ar
     6    20    21   ar
     7    21    22   ar
     8    22    23    1
     9    22    24   ar
    10    24    25   ar
    11    25    26    1
    12     3     4   ar
    13     4     5   ar
    14     5     6   ar
    15     6     7   ar
    16     7     8   ar
    17     8     9   ar
    18     9    10   ar
    19    10    11   ar
    20    11    12   ar
    21    12    13   ar
    22     7    14    1
    23    14    15    1
    24    15    16    1
    25    16    27    1
    26    27    28    1
    27    28    29    1
    28    29    30    1
    29    30    31    1
    30    31    32    1
    31    32    33    1
    32    16    17    1
    33    13     2   ar
    34    33    28    1
    35    25    19   ar
    36     8     4   ar
    37    13     9   ar
    38    17     6    1
@<TRIPOS>MOLECULE
*****
 33 38 0 0 0
SMALL
GASTEIGER

@<TRIPOS>ATOM
      1 O         139.0072  142.5677  162.3194 O.2     1  UNL1       -0.2443
      2 C         139.5170  141.6942  161.2117 C.ar    1  UNL1        0.3532
      3 N         140.5099  140.6097  161.5082 N.ar    1  UNL1       -0.2701
      4 C         141.0197  139.7363  160.4006 C.ar    1  UNL1        0.0965
      5 S         141.9942  138.5958  160.3891 S.2     1  UNL1       -0.0728
      6 C         142.1134  138.1021  158.9778 C.ar    1  UNL1        0.0210
      7 C         141.2126  138.9374  158.1168 C.ar    1  UNL1       -0.0126
      8 C         140.5367  139.9473  158.9962 C.ar    1  UNL1        0.0545
      9 C         139.5439  141.0318  158.6996 C.ar    1  UNL1        0.1717
     10 N         138.8911  141.4733  157.4233 N.ar    1  UNL1       -0.2032
     11 C         137.9778  142.6197  157.7422 C.ar    1  UNL1        0.2214
     12 N         138.0661  142.8867  159.2157 N.ar    1  UNL1       -0.1372
     13 N         139.0340  141.9053  159.8073 N.ar    1  UNL1       -0.1606
     14 C         141.1243  138.6704  156.6434 C.3     1  UNL1        0.0441
     15 C         141.9366  137.5682  156.0309 C.3     1  UNL1        0.0771
     16 N         142.8373  136.7330  156.8918 N.3     1  UNL1       -0.2682
     17 C         142.9257  136.9999  158.3652 C.3     1  UNL1        0.1054
     18 C         140.9929  140.3987  162.9126 C.3     1  UNL1        0.1400
     19 C         140.1131  139.7085  163.9125 C.ar    1  UNL1        0.0281
     20 C         139.7872  138.2537  163.7468 C.ar    1  UNL1        0.0007
     21 C         138.9074  137.5635  164.7466 C.ar    1  UNL1        0.0113
     22 C         138.3536  138.3282  165.9122 C.ar    1  UNL1        0.0599
     23 CL        137.4738  137.6380  166.9121 Cl      1  UNL1       -0.0822
     24 C         138.6794  139.7829  166.0780 C.ar    1  UNL1        0.0408
     25 C         139.5592  140.4731  165.0780 C.ar    1  UNL1        0.1388
     26 F         139.8851  141.9279  165.2438 F       1  UNL1       -0.2044
     27 C         143.6497  135.6307  156.2792 C.3     1  UNL1        0.0725
     28 C         143.0872  134.2428  156.1941 C.3     1  UNL1        0.0210
     29 C         143.6855  133.1394  157.0154 C.3     1  UNL1        0.0335
     30 C         143.1230  131.7515  156.9302 C.3     1  UNL1        0.1422
     31 O         141.9623  131.4670  156.0237 O.3     1  UNL1       -0.3538
     32 C         141.3641  132.5704  155.2023 C.3     1  UNL1        0.1422
     33 C         141.9265  133.9582  155.2875 C.3     1  UNL1        0.0335
@<TRIPOS>BOND
     1     1     2    2
     2     2     3   ar
     3     3    18    1
     4    18    19    1
     5    19    20   ar
     6    20    21   ar
     7    21    22   ar
     8    22    23    1
     9    22    24   ar
    10    24    25   ar
    11    25    26    1
    12     3     4   ar
    13     4     5   ar
    14     5     6   ar
    15     6     7   ar
    16     7     8   ar
    17     8     9   ar
    18     9    10   ar
    19    10    11   ar
    20    11    12   ar
    21    12    13   ar
    22     7    14    1
    23    14    15    1
    24    15    16    1
    25    16    27    1
    26    27    28    1
    27    28    29    1
    28    29    30    1
    29    30    31    1
    30    31    32    1
    31    32    33    1
    32    16    17    1
    33    13     2   ar
    34    33    28    1
    35    25    19   ar
    36     8     4   ar
    37    13     9   ar
    38    17     6    1
@<TRIPOS>MOLECULE
*****
 33 38 0 0 0
SMALL
GASTEIGER

@<TRIPOS>ATOM
      1 O         140.9833  143.5596  158.1282 O.2     1  UNL1       -0.2443
      2 C         141.0930  143.3455  159.6088 C.ar    1  UNL1        0.3532
      3 N         141.7336  142.0979  160.1408 N.ar    1  UNL1       -0.2701
      4 C         141.8433  141.8838  161.6213 C.ar    1  UNL1        0.0965
      5 S         142.4195  140.7618  162.4333 S.2     1  UNL1       -0.0728
      6 C         142.2446  141.1018  163.8836 C.ar    1  UNL1        0.0210
      7 C         141.5603  142.4341  163.9682 C.ar    1  UNL1       -0.0126
      8 C         141.3124  142.9173  162.5700 C.ar    1  UNL1        0.0545
      9 C         140.6717  144.1649  162.0380 C.ar    1  UNL1        0.1717
     10 N         140.0623  145.3513  162.7244 N.ar    1  UNL1       -0.2032
     11 C         139.5759  146.2986  161.6680 C.ar    1  UNL1        0.2214
     12 N         139.8847  145.6978  160.3287 N.ar    1  UNL1       -0.1372
     13 N         140.5620  144.3790  160.5575 N.ar    1  UNL1       -0.1606
     14 C         141.2515  143.0350  165.3074 C.3     1  UNL1        0.0441
     15 C         141.6269  142.3037  166.5621 C.3     1  UNL1        0.0771
     16 N         142.3111  140.9715  166.4776 N.3     1  UNL1       -0.2682
     17 C         142.6199  140.3705  165.1384 C.3     1  UNL1        0.1054
     18 C         142.2646  141.0644  159.1921 C.3     1  UNL1        0.1400
     19 C         143.4534  141.3761  158.3321 C.ar    1  UNL1        0.0281
     20 C         143.5539  140.7962  156.9524 C.ar    1  UNL1        0.0007
     21 C         144.7427  141.1079  156.0925 C.ar    1  UNL1        0.0113
     22 C         145.8312  141.9996  156.6123 C.ar    1  UNL1        0.0599
     23 CL        147.0201  142.3113  155.7524 Cl      1  UNL1       -0.0822
     24 C         145.7308  142.5795  157.9920 C.ar    1  UNL1        0.0408
     25 C         144.5419  142.2677  158.8519 C.ar    1  UNL1        0.1388
     26 F         144.4415  142.8477  160.2317 F       1  UNL1       -0.2044
     27 C         142.6864  140.2402  167.7324 C.3     1  UNL1        0.0725
     28 C         141.9671  140.5339  169.0153 C.3     1  UNL1        0.0210
     29 C         140.6101  139.9458  169.2660 C.3     1  UNL1        0.0335
     30 C         139.8908  140.2395  170.5491 C.3     1  UNL1        0.1422
     31 O         140.5283  141.1214  171.5814 O.3     1  UNL1       -0.3538
     32 C         141.8852  141.7096  171.3308 C.3     1  UNL1        0.1422
     33 C         142.6046  141.4159  170.0478 C.3     1  UNL1        0.0335
@<TRIPOS>BOND
     1     1     2    2
     2     2     3   ar
     3     3    18    1
     4    18    19    1
     5    19    20   ar
     6    20    21   ar
     7    21    22   ar
     8    22    23    1
     9    22    24   ar
    10    24    25   ar
    11    25    26    1
    12     3     4   ar
    13     4     5   ar
    14     5     6   ar
    15     6     7   ar
    16     7     8   ar
    17     8     9   ar
    18     9    10   ar
    19    10    11   ar
    20    11    12   ar
    21    12    13   ar
    22     7    14    1
    23    14    15    1
    24    15    16    1
    25    16    27    1
    26    27    28    1
    27    28    29    1
    28    29    30    1
    29    30    31    1
    30    31    32    1
    31    32    33    1
    32    16    17    1
    33    13     2   ar
    34    33    28    1
    35    25    19   ar
    36     8     4   ar
    37    13     9   ar
    38    17     6    1
