@<TRIPOS>MOLECULE
*****
 29 32 0 0 0
SMALL
GASTEIGER

@<TRIPOS>ATOM
      1 C         139.4796  140.4469  169.4059 C.2     1  UNL1        0.2529
      2 O         138.6436  139.8770  170.5133 O.2     1  UNL1       -0.2698
      3 N         139.2321  140.0272  167.9872 N.am    1  UNL1       -0.2759
      4 C         138.1485  139.0378  167.6760 C.3     1  UNL1        0.0954
      5 C         137.9010  138.6181  166.2573 C.3     1  UNL1        0.0410
      6 C         138.7370  139.1880  165.1498 C.3     1  UNL1        0.0724
      7 C         139.8205  140.1775  165.4611 C.3     1  UNL1        0.0410
      8 C         140.0680  140.5971  166.8799 C.3     1  UNL1        0.0954
      9 C         144.2354  142.6323  170.1039 C.3     1  UNL1        0.1548
     10 N         142.7491  142.4409  170.0380 N.ar    1  UNL1       -0.2380
     11 N         141.7119  143.4772  170.3543 N.ar    1  UNL1       -0.1667
     12 C         140.3608  142.8564  170.1561 C.ar    1  UNL1        0.1270
     13 C         140.5631  141.4364  169.7171 C.ar    1  UNL1        0.1024
     14 C         142.0392  141.1796  169.6442 C.ar    1  UNL1        0.1408
     15 CL        142.6909  139.8882  169.2471 Cl      1  UNL1       -0.0615
     16 N         138.4895  138.7684  163.7312 N.pl3   1  UNL1       -0.3338
     17 H         138.0645  137.9008  163.5415 H       1  UNL1        0.1468
     18 C         138.8893  139.6707  162.6016 C.ar    1  UNL1        0.0507
     19 C         138.0883  140.9043  162.3074 C.ar    1  UNL1        0.0751
     20 C         138.4882  141.8065  161.1778 C.ar    1  UNL1        0.2622
     21 O         137.6871  143.0402  160.8837 O.2     1  UNL1       -0.2669
     22 N         139.6890  141.4751  160.3423 N.ar    1  UNL1       -0.2934
     23 C         140.0888  142.3774  159.2126 C.3     1  UNL1        0.1335
     24 C         140.4900  140.2414  160.6364 C.ar    1  UNL1        0.0637
     25 C         141.6909  139.9100  159.8008 C.ar    1  UNL1        0.0173
     26 C         142.4918  138.6764  160.0949 C.ar    1  UNL1        0.0015
     27 C         142.0920  137.7742  161.2246 C.ar    1  UNL1        0.0001
     28 C         140.8912  138.1056  162.0601 C.ar    1  UNL1        0.0027
     29 C         140.0902  139.3392  161.7660 C.ar    1  UNL1        0.0291
@<TRIPOS>BOND
     1     9    10    1
     2    10    11   ar
     3    11    12   ar
     4    12    13   ar
     5    13     1    1
     6     1     2    2
     7     1     3   am
     8     3     4    1
     9     4     5    1
    10     5     6    1
    11     6    16    1
    12    16    18    1
    13    18    19   ar
    14    19    20   ar
    15    20    21    2
    16    20    22   ar
    17    22    23    1
    18    22    24   ar
    19    24    25   ar
    20    25    26   ar
    21    26    27   ar
    22    27    28   ar
    23    28    29   ar
    24     6     7    1
    25     7     8    1
    26    13    14   ar
    27    14    15    1
    28    14    10   ar
    29     8     3    1
    30    29    18   ar
    31    29    24   ar
    32    16    17    1
@<TRIPOS>MOLECULE
*****
 29 32 0 0 0
SMALL
GASTEIGER

@<TRIPOS>ATOM
      1 C         139.2733  140.3712  169.1339 C.2     1  UNL1        0.2529
      2 O         138.2481  140.1025  170.1955 O.2     1  UNL1       -0.2698
      3 N         139.1844  139.6702  167.8109 N.am    1  UNL1       -0.2759
      4 C         138.0703  138.7005  167.5493 C.3     1  UNL1        0.0954
      5 C         137.9813  137.9994  166.2262 C.3     1  UNL1        0.0410
      6 C         139.0065  138.2681  165.1646 C.3     1  UNL1        0.0724
      7 C         140.1206  139.2379  165.4262 C.3     1  UNL1        0.0410
      8 C         140.2095  139.9389  166.7494 C.3     1  UNL1        0.0954
      9 C         144.0744  142.3871  170.0096 C.3     1  UNL1        0.1548
     10 N         142.5942  142.2676  169.7980 N.ar    1  UNL1       -0.2380
     11 N         141.6094  143.3990  169.7981 N.ar    1  UNL1       -0.1667
     12 C         140.2455  142.8264  169.5493 C.ar    1  UNL1        0.1270
     13 C         140.3874  141.3410  169.3955 C.ar    1  UNL1        0.1024
     14 C         141.8390  140.9957  169.5492 C.ar    1  UNL1        0.1408
     15 CL        142.4314  139.6200  169.4683 Cl      1  UNL1       -0.0615
     16 N         138.9176  137.5671  163.8415 N.pl3   1  UNL1       -0.3338
     17 H         138.2585  136.8479  163.7088 H       1  UNL1        0.1468
     18 C         139.8327  137.9619  162.7205 C.ar    1  UNL1        0.0507
     19 C         141.2850  137.5900  162.7717 C.ar    1  UNL1        0.0751
     20 C         142.2002  137.9848  161.6507 C.ar    1  UNL1        0.2622
     21 O         143.6525  137.6129  161.7018 O.2     1  UNL1       -0.2669
     22 N         141.6631  138.7514  160.4786 N.ar    1  UNL1       -0.2934
     23 C         142.5783  139.1462  159.3576 C.3     1  UNL1        0.1335
     24 C         140.2108  139.1233  160.4274 C.ar    1  UNL1        0.0637
     25 C         139.6738  139.8899  159.2553 C.ar    1  UNL1        0.0173
     26 C         138.2215  140.2618  159.2042 C.ar    1  UNL1        0.0015
     27 C         137.3063  139.8670  160.3252 C.ar    1  UNL1        0.0001
     28 C         137.8434  139.1004  161.4973 C.ar    1  UNL1        0.0027
     29 C         139.2956  138.7285  161.5484 C.ar    1  UNL1        0.0291
@<TRIPOS>BOND
     1     9    10    1
     2    10    11   ar
     3    11    12   ar
     4    12    13   ar
     5    13     1    1
     6     1     2    2
     7     1     3   am
     8     3     4    1
     9     4     5    1
    10     5     6    1
    11     6    16    1
    12    16    18    1
    13    18    19   ar
    14    19    20   ar
    15    20    21    2
    16    20    22   ar
    17    22    23    1
    18    22    24   ar
    19    24    25   ar
    20    25    26   ar
    21    26    27   ar
    22    27    28   ar
    23    28    29   ar
    24     6     7    1
    25     7     8    1
    26    13    14   ar
    27    14    15    1
    28    14    10   ar
    29     8     3    1
    30    29    18   ar
    31    29    24   ar
    32    16    17    1
@<TRIPOS>MOLECULE
*****
 29 32 0 0 0
SMALL
GASTEIGER

@<TRIPOS>ATOM
      1 C         140.2003  145.0949  161.0763 C.2     1  UNL1        0.2529
      2 O         139.3469  146.2519  161.5041 O.2     1  UNL1       -0.2698
      3 N         140.8827  144.2448  162.1066 N.am    1  UNL1       -0.2759
      4 C         140.7117  144.5517  163.5649 C.3     1  UNL1        0.0954
      5 C         141.3940  143.7017  164.5953 C.3     1  UNL1        0.0410
      6 C         142.2475  142.5446  164.1674 C.3     1  UNL1        0.0724
      7 C         142.4185  142.2377  162.7092 C.3     1  UNL1        0.0410
      8 C         141.7361  143.0878  161.6787 C.3     1  UNL1        0.0954
      9 C         139.6872  142.8561  156.3218 C.3     1  UNL1        0.1548
     10 N         140.1355  143.7589  157.4326 N.ar    1  UNL1       -0.2380
     11 N         141.1335  144.8725  157.3152 N.ar    1  UNL1       -0.1667
     12 C         141.2794  145.5085  158.6659 C.ar    1  UNL1        0.1270
     13 C         140.3713  144.7879  159.6180 C.ar    1  UNL1        0.1024
     14 C         139.6644  143.7066  158.8557 C.ar    1  UNL1        0.1408
     15 CL        138.6624  142.7424  159.4179 Cl      1  UNL1       -0.0615
     16 N         142.9299  141.6946  165.1978 N.pl3   1  UNL1       -0.3338
     17 H         143.7064  141.1442  164.9461 H       1  UNL1        0.1468
     18 C         142.4291  141.6830  166.6117 C.ar    1  UNL1        0.0507
     19 C         143.1824  142.4185  167.6802 C.ar    1  UNL1        0.0751
     20 C         142.6817  142.4070  169.0941 C.ar    1  UNL1        0.2622
     21 O         143.4350  143.1425  170.1625 O.2     1  UNL1       -0.2669
     22 N         141.4277  141.6600  169.4395 N.ar    1  UNL1       -0.2934
     23 C         140.9270  141.6484  170.8535 C.3     1  UNL1        0.1335
     24 C         140.6743  140.9244  168.3711 C.ar    1  UNL1        0.0637
     25 C         139.4203  140.1774  168.7165 C.ar    1  UNL1        0.0173
     26 C         138.6670  139.4420  167.6481 C.ar    1  UNL1        0.0015
     27 C         139.1678  139.4535  166.2342 C.ar    1  UNL1        0.0001
     28 C         140.4218  140.2005  165.8887 C.ar    1  UNL1        0.0027
     29 C         141.1750  140.9360  166.9572 C.ar    1  UNL1        0.0291
@<TRIPOS>BOND
     1     9    10    1
     2    10    11   ar
     3    11    12   ar
     4    12    13   ar
     5    13     1    1
     6     1     2    2
     7     1     3   am
     8     3     4    1
     9     4     5    1
    10     5     6    1
    11     6    16    1
    12    16    18    1
    13    18    19   ar
    14    19    20   ar
    15    20    21    2
    16    20    22   ar
    17    22    23    1
    18    22    24   ar
    19    24    25   ar
    20    25    26   ar
    21    26    27   ar
    22    27    28   ar
    23    28    29   ar
    24     6     7    1
    25     7     8    1
    26    13    14   ar
    27    14    15    1
    28    14    10   ar
    29     8     3    1
    30    29    18   ar
    31    29    24   ar
    32    16    17    1
@<TRIPOS>MOLECULE
*****
 29 32 0 0 0
SMALL
GASTEIGER

@<TRIPOS>ATOM
      1 C         142.6956  139.7306  168.6720 C.2     1  UNL1        0.2529
      2 O         143.1198  138.5109  169.4353 O.2     1  UNL1       -0.2698
      3 N         142.7457  139.7323  167.1729 N.am    1  UNL1       -0.2759
      4 C         143.2202  138.5144  166.4370 C.3     1  UNL1        0.0954
      5 C         143.2704  138.5160  164.9378 C.3     1  UNL1        0.0410
      6 C         142.8461  139.7357  164.1745 C.3     1  UNL1        0.0724
      7 C         142.3716  140.9536  164.9105 C.3     1  UNL1        0.0410
      8 C         142.3215  140.9519  166.4097 C.3     1  UNL1        0.0954
      9 C         139.5613  143.3235  170.9409 C.3     1  UNL1        0.1548
     10 N         140.7804  142.6000  170.4508 N.ar    1  UNL1       -0.2380
     11 N         142.2015  143.0454  170.6300 N.ar    1  UNL1       -0.1667
     12 C         143.0920  142.0247  169.9854 C.ar    1  UNL1        0.1270
     13 C         142.2211  140.9485  169.4079 C.ar    1  UNL1        0.1024
     14 C         140.7925  141.3040  169.6956 C.ar    1  UNL1        0.1408
     15 CL        139.5876  140.5041  169.2978 Cl      1  UNL1       -0.0615
     16 N         142.8963  139.7374  162.6754 N.pl3   1  UNL1       -0.3338
     17 H         143.6447  139.3013  162.2075 H       1  UNL1        0.1468
     18 C         141.8062  140.4034  161.8892 C.ar    1  UNL1        0.0507
     19 C         142.0777  141.6946  161.1757 C.ar    1  UNL1        0.0751
     20 C         140.9876  142.3606  160.3895 C.ar    1  UNL1        0.2622
     21 O         141.2591  143.6518  159.6760 O.2     1  UNL1       -0.2669
     22 N         139.6260  141.7355  160.3169 N.ar    1  UNL1       -0.2934
     23 C         138.5359  142.4015  159.5307 C.3     1  UNL1        0.1335
     24 C         139.3545  140.4443  161.0304 C.ar    1  UNL1        0.0637
     25 C         137.9929  139.8191  160.9578 C.ar    1  UNL1        0.0173
     26 C         137.7214  138.5280  161.6713 C.ar    1  UNL1        0.0015
     27 C         138.8115  137.8620  162.4575 C.ar    1  UNL1        0.0001
     28 C         140.1731  138.4871  162.5301 C.ar    1  UNL1        0.0027
     29 C         140.4446  139.7782  161.8166 C.ar    1  UNL1        0.0291
@<TRIPOS>BOND
     1     9    10    1
     2    10    11   ar
     3    11    12   ar
     4    12    13   ar
     5    13     1    1
     6     1     2    2
     7     1     3   am
     8     3     4    1
     9     4     5    1
    10     5     6    1
    11     6    16    1
    12    16    18    1
    13    18    19   ar
    14    19    20   ar
    15    20    21    2
    16    20    22   ar
    17    22    23    1
    18    22    24   ar
    19    24    25   ar
    20    25    26   ar
    21    26    27   ar
    22    27    28   ar
    23    28    29   ar
    24     6     7    1
    25     7     8    1
    26    13    14   ar
    27    14    15    1
    28    14    10   ar
    29     8     3    1
    30    29    18   ar
    31    29    24   ar
    32    16    17    1
@<TRIPOS>MOLECULE
*****
 29 32 0 0 0
SMALL
GASTEIGER

@<TRIPOS>ATOM
      1 C         139.8147  139.8946  168.4542 C.2     1  UNL1        0.2529
      2 O         138.4938  139.9784  169.1602 O.2     1  UNL1       -0.2698
      3 N         139.8983  139.2750  167.0908 N.am    1  UNL1       -0.2759
      4 C         138.6612  138.7392  166.4332 C.3     1  UNL1        0.0954
      5 C         138.7449  138.1196  165.0698 C.3     1  UNL1        0.0410
      6 C         140.0657  138.0358  164.3638 C.3     1  UNL1        0.0724
      7 C         141.3029  138.5716  165.0213 C.3     1  UNL1        0.0410
      8 C         141.2192  139.1912  166.3849 C.3     1  UNL1        0.0954
      9 C         143.3616  143.2033  170.5405 C.3     1  UNL1        0.1548
     10 N         142.6822  141.9512  170.0708 N.ar    1  UNL1       -0.2380
     11 N         143.2291  140.5585  170.1766 N.ar    1  UNL1       -0.1667
     12 C         142.2215  139.6185  169.5839 C.ar    1  UNL1        0.1270
     13 C         141.0518  140.4304  169.1118 C.ar    1  UNL1        0.1024
     14 C         141.3366  141.8720  169.4127 C.ar    1  UNL1        0.1408
     15 CL        140.4341  143.0310  169.1089 Cl      1  UNL1       -0.0615
     16 N         140.1494  137.4162  163.0003 N.pl3   1  UNL1       -0.3338
     17 H         140.2662  136.4430  162.9082 H       1  UNL1        0.1468
     18 C         140.0551  138.2794  161.7772 C.ar    1  UNL1        0.0507
     19 C         138.7118  138.6852  161.2473 C.ar    1  UNL1        0.0751
     20 C         138.6175  139.5483  160.0242 C.ar    1  UNL1        0.2622
     21 O         137.2741  139.9541  159.4943 O.2     1  UNL1       -0.2669
     22 N         139.8665  140.0058  159.3309 N.ar    1  UNL1       -0.2934
     23 C         139.7722  140.8689  158.1078 C.3     1  UNL1        0.1335
     24 C         141.2099  139.6000  159.8608 C.ar    1  UNL1        0.0637
     25 C         142.4590  140.0574  159.1676 C.ar    1  UNL1        0.0173
     26 C         143.8023  139.6517  159.6974 C.ar    1  UNL1        0.0015
     27 C         143.8966  138.7885  160.9206 C.ar    1  UNL1        0.0001
     28 C         142.6475  138.3311  161.6138 C.ar    1  UNL1        0.0027
     29 C         141.3042  138.7368  161.0839 C.ar    1  UNL1        0.0291
@<TRIPOS>BOND
     1     9    10    1
     2    10    11   ar
     3    11    12   ar
     4    12    13   ar
     5    13     1    1
     6     1     2    2
     7     1     3   am
     8     3     4    1
     9     4     5    1
    10     5     6    1
    11     6    16    1
    12    16    18    1
    13    18    19   ar
    14    19    20   ar
    15    20    21    2
    16    20    22   ar
    17    22    23    1
    18    22    24   ar
    19    24    25   ar
    20    25    26   ar
    21    26    27   ar
    22    27    28   ar
    23    28    29   ar
    24     6     7    1
    25     7     8    1
    26    13    14   ar
    27    14    15    1
    28    14    10   ar
    29     8     3    1
    30    29    18   ar
    31    29    24   ar
    32    16    17    1
@<TRIPOS>MOLECULE
*****
 29 32 0 0 0
SMALL
GASTEIGER

@<TRIPOS>ATOM
      1 C         140.6246  139.2088  156.9764 C.2     1  UNL1        0.2529
      2 O         140.7401  140.2339  155.8874 O.2     1  UNL1       -0.2698
      3 N         139.7988  139.4985  158.1946 N.am    1  UNL1       -0.2759
      4 C         139.0885  140.8133  158.3239 C.3     1  UNL1        0.0954
      5 C         138.2627  141.1030  159.5421 C.3     1  UNL1        0.0410
      6 C         138.1471  140.0779  160.6311 C.3     1  UNL1        0.0724
      7 C         138.8574  138.7631  160.5018 C.3     1  UNL1        0.0410
      8 C         139.6833  138.4734  159.2835 C.3     1  UNL1        0.0954
      9 C         141.7982  134.2496  155.5944 C.3     1  UNL1        0.1548
     10 N         141.8743  135.6144  156.2118 N.ar    1  UNL1       -0.2380
     11 N         142.9816  136.1268  157.0844 N.ar    1  UNL1       -0.1667
     12 C         142.6483  137.5356  157.4771 C.ar    1  UNL1        0.1270
     13 C         141.3349  137.8939  156.8471 C.ar    1  UNL1        0.1024
     14 C         140.8566  136.7066  156.0651 C.ar    1  UNL1        0.1408
     15 CL        139.5840  136.6256  155.2752 Cl      1  UNL1       -0.0615
     16 N         137.3213  140.3676  161.8493 N.pl3   1  UNL1       -0.3338
     17 H         136.3390  140.3827  161.7858 H       1  UNL1        0.1468
     18 C         137.9922  140.6343  163.1641 C.ar    1  UNL1        0.0507
     19 C         138.3551  139.4922  164.0662 C.ar    1  UNL1        0.0751
     20 C         139.0260  139.7589  165.3811 C.ar    1  UNL1        0.2622
     21 O         139.3889  138.6168  166.2832 O.2     1  UNL1       -0.2669
     22 N         139.3339  141.1678  165.7938 N.ar    1  UNL1       -0.2934
     23 C         140.0048  141.4345  167.1086 C.3     1  UNL1        0.1335
     24 C         138.9710  142.3099  164.8916 C.ar    1  UNL1        0.0637
     25 C         139.2790  143.7187  165.3043 C.ar    1  UNL1        0.0173
     26 C         138.9161  144.8608  164.4022 C.ar    1  UNL1        0.0015
     27 C         138.2453  144.5941  163.0874 C.ar    1  UNL1        0.0001
     28 C         137.9373  143.1853  162.6746 C.ar    1  UNL1        0.0027
     29 C         138.3002  142.0432  163.5768 C.ar    1  UNL1        0.0291
@<TRIPOS>BOND
     1     9    10    1
     2    10    11   ar
     3    11    12   ar
     4    12    13   ar
     5    13     1    1
     6     1     2    2
     7     1     3   am
     8     3     4    1
     9     4     5    1
    10     5     6    1
    11     6    16    1
    12    16    18    1
    13    18    19   ar
    14    19    20   ar
    15    20    21    2
    16    20    22   ar
    17    22    23    1
    18    22    24   ar
    19    24    25   ar
    20    25    26   ar
    21    26    27   ar
    22    27    28   ar
    23    28    29   ar
    24     6     7    1
    25     7     8    1
    26    13    14   ar
    27    14    15    1
    28    14    10   ar
    29     8     3    1
    30    29    18   ar
    31    29    24   ar
    32    16    17    1
@<TRIPOS>MOLECULE
*****
 29 32 0 0 0
SMALL
GASTEIGER

@<TRIPOS>ATOM
      1 C         140.2696  145.4960  160.3809 C.2     1  UNL1        0.2529
      2 O         139.2607  146.4875  160.8802 O.2     1  UNL1       -0.2698
      3 N         141.2571  144.8873  161.3318 N.am    1  UNL1       -0.2759
      4 C         141.2358  145.2700  162.7820 C.3     1  UNL1        0.0954
      5 C         142.2233  144.6612  163.7329 C.3     1  UNL1        0.0410
      6 C         143.2322  143.6697  163.2336 C.3     1  UNL1        0.0724
      7 C         143.2535  143.2871  161.7834 C.3     1  UNL1        0.0410
      8 C         142.2659  143.8959  160.8325 C.3     1  UNL1        0.0954
      9 C         139.4519  142.8888  155.8627 C.3     1  UNL1        0.1548
     10 N         139.9150  143.9149  156.8539 N.ar    1  UNL1       -0.2380
     11 N         140.7322  145.1340  156.5442 N.ar    1  UNL1       -0.1667
     12 C         140.9645  145.8748  157.8277 C.ar    1  UNL1        0.1270
     13 C         140.2909  145.1134  158.9307 C.ar    1  UNL1        0.1024
     14 C         139.6423  143.9021  158.3288 C.ar    1  UNL1        0.1408
     15 CL        138.8585  142.8609  159.0715 Cl      1  UNL1       -0.0615
     16 N         144.2197  143.0610  164.1845 N.pl3   1  UNL1       -0.3338
     17 H         145.1855  143.1722  164.0291 H       1  UNL1        0.1468
     18 C         143.7357  142.2829  165.3720 C.ar    1  UNL1        0.0507
     19 C         143.6828  142.9322  166.7232 C.ar    1  UNL1        0.0751
     20 C         143.1988  142.1541  167.9107 C.ar    1  UNL1        0.2622
     21 O         143.1458  142.8034  169.2619 O.2     1  UNL1       -0.2669
     22 N         142.7678  140.7267  167.7472 N.ar    1  UNL1       -0.2934
     23 C         142.2839  139.9486  168.9348 C.3     1  UNL1        0.1335
     24 C         142.8208  140.0773  166.3960 C.ar    1  UNL1        0.0637
     25 C         142.3898  138.6499  166.2324 C.ar    1  UNL1        0.0173
     26 C         142.4428  138.0007  164.8813 C.ar    1  UNL1        0.0015
     27 C         142.9267  138.7788  163.6937 C.ar    1  UNL1        0.0001
     28 C         143.3577  140.2062  163.8573 C.ar    1  UNL1        0.0027
     29 C         143.3047  140.8554  165.2084 C.ar    1  UNL1        0.0291
@<TRIPOS>BOND
     1     9    10    1
     2    10    11   ar
     3    11    12   ar
     4    12    13   ar
     5    13     1    1
     6     1     2    2
     7     1     3   am
     8     3     4    1
     9     4     5    1
    10     5     6    1
    11     6    16    1
    12    16    18    1
    13    18    19   ar
    14    19    20   ar
    15    20    21    2
    16    20    22   ar
    17    22    23    1
    18    22    24   ar
    19    24    25   ar
    20    25    26   ar
    21    26    27   ar
    22    27    28   ar
    23    28    29   ar
    24     6     7    1
    25     7     8    1
    26    13    14   ar
    27    14    15    1
    28    14    10   ar
    29     8     3    1
    30    29    18   ar
    31    29    24   ar
    32    16    17    1
@<TRIPOS>MOLECULE
*****
 29 32 0 0 0
SMALL
GASTEIGER

@<TRIPOS>ATOM
      1 C         142.9809  139.1641  166.9317 C.2     1  UNL1        0.2529
      2 O         143.4385  137.7498  166.7306 O.2     1  UNL1       -0.2698
      3 N         143.3519  140.2214  165.9346 N.am    1  UNL1       -0.2759
      4 C         144.1806  139.8646  164.7363 C.3     1  UNL1        0.0954
      5 C         144.5517  140.9219  163.7392 C.3     1  UNL1        0.0410
      6 C         144.0940  142.3362  163.9404 C.3     1  UNL1        0.0724
      7 C         143.2653  142.6931  165.1387 C.3     1  UNL1        0.0410
      8 C         142.8943  141.6356  166.1358 C.3     1  UNL1        0.0954
      9 C         138.8888  140.4964  169.9912 C.3     1  UNL1        0.1548
     10 N         140.2712  140.1333  169.5363 N.ar    1  UNL1       -0.2380
     11 N         141.4826  140.0068  170.4118 N.ar    1  UNL1       -0.1667
     12 C         142.6452  139.6283  169.5427 C.ar    1  UNL1        0.1270
     13 C         142.1522  139.5209  168.1300 C.ar    1  UNL1        0.1024
     14 C         140.6850  139.8330  168.1262 C.ar    1  UNL1        0.1408
     15 CL        139.7889  139.8431  166.9233 Cl      1  UNL1       -0.0615
     16 N         144.4651  143.3936  162.9433 N.pl3   1  UNL1       -0.3338
     17 H         145.2057  144.0131  163.1353 H       1  UNL1        0.1468
     18 C         143.7077  143.5070  161.6535 C.ar    1  UNL1        0.0507
     19 C         144.2280  142.8367  160.4167 C.ar    1  UNL1        0.0751
     20 C         143.4707  142.9502  159.1269 C.ar    1  UNL1        0.2622
     21 O         143.9911  142.2797  157.8901 O.2     1  UNL1       -0.2669
     22 N         142.1929  143.7340  159.0740 N.ar    1  UNL1       -0.2934
     23 C         141.4355  143.8475  157.7842 C.3     1  UNL1        0.1335
     24 C         141.6725  144.4045  160.3109 C.ar    1  UNL1        0.0637
     25 C         140.3947  145.1883  160.2579 C.ar    1  UNL1        0.0173
     26 C         139.8744  145.8587  161.4947 C.ar    1  UNL1        0.0015
     27 C         140.6318  145.7452  162.7845 C.ar    1  UNL1        0.0001
     28 C         141.9095  144.9613  162.8374 C.ar    1  UNL1        0.0027
     29 C         142.4299  144.2910  161.6006 C.ar    1  UNL1        0.0291
@<TRIPOS>BOND
     1     9    10    1
     2    10    11   ar
     3    11    12   ar
     4    12    13   ar
     5    13     1    1
     6     1     2    2
     7     1     3   am
     8     3     4    1
     9     4     5    1
    10     5     6    1
    11     6    16    1
    12    16    18    1
    13    18    19   ar
    14    19    20   ar
    15    20    21    2
    16    20    22   ar
    17    22    23    1
    18    22    24   ar
    19    24    25   ar
    20    25    26   ar
    21    26    27   ar
    22    27    28   ar
    23    28    29   ar
    24     6     7    1
    25     7     8    1
    26    13    14   ar
    27    14    15    1
    28    14    10   ar
    29     8     3    1
    30    29    18   ar
    31    29    24   ar
    32    16    17    1
@<TRIPOS>MOLECULE
*****
 29 32 0 0 0
SMALL
GASTEIGER

@<TRIPOS>ATOM
      1 C         139.7157  142.8157  155.8549 C.2     1  UNL1        0.2529
      2 O         140.4176  143.0916  154.5582 O.2     1  UNL1       -0.2698
      3 N         140.1908  143.4691  157.1187 N.am    1  UNL1       -0.2759
      4 C         141.3678  144.3985  157.0859 C.3     1  UNL1        0.0954
      5 C         141.8429  145.0519  158.3497 C.3     1  UNL1        0.0410
      6 C         141.1410  144.7760  159.6464 C.3     1  UNL1        0.0724
      7 C         139.9641  143.8467  159.6792 C.3     1  UNL1        0.0410
      8 C         139.4889  143.1932  158.4153 C.3     1  UNL1        0.0954
      9 C         134.7799  140.9533  155.6305 C.3     1  UNL1        0.1548
     10 N         136.2699  141.0304  155.7845 N.ar    1  UNL1       -0.2380
     11 N         137.1851  139.8822  156.0917 N.ar    1  UNL1       -0.1667
     12 C         138.5873  140.4112  156.1554 C.ar    1  UNL1        0.1270
     13 C         138.5387  141.8864  155.8877 C.ar    1  UNL1        0.1024
     14 C         137.1066  142.2690  155.6584 C.ar    1  UNL1        0.1408
     15 CL        136.5999  143.6481  155.3562 Cl      1  UNL1       -0.0615
     16 N         141.6162  145.4294  160.9102 N.pl3   1  UNL1       -0.3338
     17 H         141.6476  146.4113  160.9749 H       1  UNL1        0.1468
     18 C         142.0434  144.5869  162.0754 C.ar    1  UNL1        0.0507
     19 C         143.4098  143.9684  162.0927 C.ar    1  UNL1        0.0751
     20 C         143.8370  143.1259  163.2578 C.ar    1  UNL1        0.2622
     21 O         145.2035  142.5074  163.2751 O.2     1  UNL1       -0.2669
     22 N         142.8978  142.9018  164.4057 N.ar    1  UNL1       -0.2934
     23 C         143.3250  142.0593  165.5709 C.3     1  UNL1        0.1335
     24 C         141.5313  143.5203  164.3884 C.ar    1  UNL1        0.0637
     25 C         140.5921  143.2962  165.5363 C.ar    1  UNL1        0.0173
     26 C         139.2257  143.9146  165.5190 C.ar    1  UNL1        0.0015
     27 C         138.7984  144.7572  164.3538 C.ar    1  UNL1        0.0001
     28 C         139.7376  144.9812  163.2059 C.ar    1  UNL1        0.0027
     29 C         141.1041  144.3628  163.2233 C.ar    1  UNL1        0.0291
@<TRIPOS>BOND
     1     9    10    1
     2    10    11   ar
     3    11    12   ar
     4    12    13   ar
     5    13     1    1
     6     1     2    2
     7     1     3   am
     8     3     4    1
     9     4     5    1
    10     5     6    1
    11     6    16    1
    12    16    18    1
    13    18    19   ar
    14    19    20   ar
    15    20    21    2
    16    20    22   ar
    17    22    23    1
    18    22    24   ar
    19    24    25   ar
    20    25    26   ar
    21    26    27   ar
    22    27    28   ar
    23    28    29   ar
    24     6     7    1
    25     7     8    1
    26    13    14   ar
    27    14    15    1
    28    14    10   ar
    29     8     3    1
    30    29    18   ar
    31    29    24   ar
    32    16    17    1
