@<TRIPOS>MOLECULE
*****
 36 39 0 0 0
SMALL
GASTEIGER

@<TRIPOS>ATOM
      1 C         140.8038  140.2002  166.6836 C.ar    1  UNL1        0.0650
      2 C         140.3455  139.8010  165.3123 C.ar    1  UNL1        0.0306
      3 C         138.9808  139.2086  165.1203 C.ar    1  UNL1        0.0507
      4 C         138.0745  139.0154  166.2998 C.ar    1  UNL1        0.0160
      5 C         138.5328  139.4146  167.6712 C.ar    1  UNL1        0.0171
      6 C         139.8974  140.0069  167.8631 C.ar    1  UNL1        0.0617
      7 C         143.8210  142.7765  166.5869 C.3     1  UNL1        0.0949
      8 C         142.4563  142.1841  166.3951 C.2     1  UNL1        0.2266
      9 O         141.3795  142.9832  165.7229 O.2     1  UNL1       -0.2748
     10 N         142.1685  140.7926  166.8754 N.am    1  UNL1       -0.2829
     11 H         142.8752  140.2680  167.3166 H       1  UNL1        0.1549
     12 N         138.5225  138.8094  163.7490 N.pl3   1  UNL1       -0.2978
     13 H         138.2770  137.8739  163.5649 H       1  UNL1        0.1536
     14 C         138.4381  139.8356  162.6581 C.ar    1  UNL1        0.1367
     15 C         138.0908  141.2565  162.9903 C.ar    1  UNL1        0.0685
     16 C         138.0065  142.2827  161.8995 C.ar    1  UNL1        0.1344
     17 N         138.2695  141.8879  160.4765 N.ar    1  UNL1       -0.1980
     18 N         138.2602  142.6736  159.1988 N.ar    1  UNL1       -0.1602
     19 C         138.6018  141.7383  158.0770 C.ar    1  UNL1        0.1339
     20 C         138.8222  140.3745  158.6613 C.ar    1  UNL1        0.1250
     21 C         138.6168  140.4669  160.1443 C.ar    1  UNL1        0.1776
     22 N         138.7011  139.4408  161.2352 N.ar    1  UNL1       -0.2109
     23 N         137.6591  143.7036  162.2317 N.pl3   1  UNL1       -0.3196
     24 H         137.1459  144.2476  161.5914 H       1  UNL1        0.1481
     25 C         138.0938  144.2957  163.5395 C.3     1  UNL1        0.0705
     26 C         139.1071  145.0442  164.3538 C.3     1  UNL1        0.0212
     27 C         137.8334  144.5729  164.9905 C.3     1  UNL1        0.0212
     28 C         139.1844  139.1358  157.8969 C.1     1  UNL1        0.1052
     29 N         139.5466  137.8971  157.1324 N.1     1  UNL1       -0.1907
     30 N         140.3557  140.4061  169.2344 N.pl3   1  UNL1       -0.3034
     31 C         141.2978  139.5226  169.9971 C.3     1  UNL1        0.1123
     32 C         139.8719  141.6889  169.8431 C.3     1  UNL1        0.1077
     33 C         140.3539  143.0032  169.3045 C.3     1  UNL1        0.0868
     34 N         140.2050  144.2500  170.1251 N.3     1  UNL1       -0.3197
     35 H         139.2146  144.4654  170.2397 H       1  UNL1        0.1189
     36 H         140.6692  145.0257  169.6525 H       1  UNL1        0.1189
@<TRIPOS>BOND
     1     7     8    1
     2     8     9    2
     3     8    10   am
     4    10     1    1
     5     1     2   ar
     6     2     3   ar
     7     3    12    1
     8    12    14    1
     9    14    15   ar
    10    15    16   ar
    11    16    23    1
    12    23    25    1
    13    25    26    1
    14    26    27    1
    15    16    17   ar
    16    17    18   ar
    17    18    19   ar
    18    19    20   ar
    19    20    28    1
    20    28    29    3
    21    20    21   ar
    22    21    22   ar
    23     3     4   ar
    24     4     5   ar
    25     5     6   ar
    26     6    30    1
    27    30    31    1
    28    30    32    1
    29    32    33    1
    30    33    34    1
    31     6     1   ar
    32    22    14   ar
    33    27    25    1
    34    21    17   ar
    35    10    11    1
    36    12    13    1
    37    23    24    1
    38    34    35    1
    39    34    36    1
@<TRIPOS>MOLECULE
*****
 36 39 0 0 0
SMALL
GASTEIGER

@<TRIPOS>ATOM
      1 C         141.7072  140.3926  166.5371 C.ar    1  UNL1        0.0650
      2 C         142.3914  140.8807  165.2947 C.ar    1  UNL1        0.0306
      3 C         143.3753  142.0102  165.3747 C.ar    1  UNL1        0.0507
      4 C         143.6749  142.6515  166.6972 C.ar    1  UNL1        0.0160
      5 C         142.9907  142.1633  167.9397 C.ar    1  UNL1        0.0171
      6 C         142.0069  141.0339  167.8596 C.ar    1  UNL1        0.0617
      7 C         138.3134  138.4065  166.0005 C.3     1  UNL1        0.0949
      8 C         139.2973  139.5360  166.0806 C.2     1  UNL1        0.2266
      9 O         138.8550  140.9383  165.7842 O.2     1  UNL1       -0.2748
     10 N         140.7234  139.2631  166.4571 N.am    1  UNL1       -0.2829
     11 H         141.0137  138.3427  166.6516 H       1  UNL1        0.1549
     12 N         144.0594  142.4984  164.1323 N.pl3   1  UNL1       -0.2978
     13 H         145.0374  142.4235  164.0471 H       1  UNL1        0.1536
     14 C         143.2535  143.1005  163.0196 C.ar    1  UNL1        0.1367
     15 C         142.0211  143.8964  163.3319 C.ar    1  UNL1        0.0685
     16 C         141.2151  144.4986  162.2192 C.ar    1  UNL1        0.1344
     17 N         141.6418  144.3048  160.7943 N.ar    1  UNL1       -0.1980
     18 N         141.0526  144.7750  159.4975 N.ar    1  UNL1       -0.1602
     19 C         141.9210  144.2696  158.3837 C.ar    1  UNL1        0.1339
     20 C         143.0468  143.4871  158.9922 C.ar    1  UNL1        0.1250
     21 C         142.8742  143.5089  160.4821 C.ar    1  UNL1        0.1776
     22 N         143.6801  142.9067  161.5947 N.ar    1  UNL1       -0.2109
     23 N         139.9826  145.2945  162.5316 N.pl3   1  UNL1       -0.3196
     24 H         139.7717  146.1011  162.0081 H       1  UNL1        0.1481
     25 C         139.0715  144.8613  163.6416 C.3     1  UNL1        0.0705
     26 C         138.7112  144.8520  165.0977 C.3     1  UNL1        0.0212
     27 C         137.8536  144.1202  164.1082 C.3     1  UNL1        0.0212
     28 C         144.1513  142.8031  158.2424 C.1     1  UNL1        0.1052
     29 N         145.2558  142.1190  157.4927 N.1     1  UNL1       -0.1907
     30 N         141.3227  140.5458  169.1020 N.pl3   1  UNL1       -0.3034
     31 C         141.9439  139.4526  169.9201 C.3     1  UNL1        0.1123
     32 C         140.0174  141.1508  169.5264 C.3     1  UNL1        0.1077
     33 C         140.0046  142.3631  170.4095 C.3     1  UNL1        0.0868
     34 N         140.4700  142.2598  171.8318 N.3     1  UNL1       -0.3197
     35 H         139.8322  141.6604  172.3556 H       1  UNL1        0.1189
     36 H         140.4860  143.1889  172.2526 H       1  UNL1        0.1189
@<TRIPOS>BOND
     1     7     8    1
     2     8     9    2
     3     8    10   am
     4    10     1    1
     5     1     2   ar
     6     2     3   ar
     7     3    12    1
     8    12    14    1
     9    14    15   ar
    10    15    16   ar
    11    16    23    1
    12    23    25    1
    13    25    26    1
    14    26    27    1
    15    16    17   ar
    16    17    18   ar
    17    18    19   ar
    18    19    20   ar
    19    20    28    1
    20    28    29    3
    21    20    21   ar
    22    21    22   ar
    23     3     4   ar
    24     4     5   ar
    25     5     6   ar
    26     6    30    1
    27    30    31    1
    28    30    32    1
    29    32    33    1
    30    33    34    1
    31     6     1   ar
    32    22    14   ar
    33    27    25    1
    34    21    17   ar
    35    10    11    1
    36    12    13    1
    37    23    24    1
    38    34    35    1
    39    34    36    1
@<TRIPOS>MOLECULE
*****
 36 39 0 0 0
SMALL
GASTEIGER

@<TRIPOS>ATOM
      1 C         142.7965  140.3308  164.6909 C.ar    1  UNL1        0.0650
      2 C         143.5380  140.8903  163.5132 C.ar    1  UNL1        0.0306
      3 C         144.2549  142.2025  163.6326 C.ar    1  UNL1        0.0507
      4 C         144.2302  142.9553  164.9298 C.ar    1  UNL1        0.0160
      5 C         143.4886  142.3958  166.1076 C.ar    1  UNL1        0.0171
      6 C         142.7718  141.0836  165.9882 C.ar    1  UNL1        0.0617
      7 C         139.8978  137.6786  164.1309 C.3     1  UNL1        0.0949
      8 C         140.6147  138.9908  164.2504 C.2     1  UNL1        0.2266
      9 O         139.8665  140.2752  164.0488 O.2     1  UNL1       -0.2748
     10 N         142.0796  139.0186  164.5715 N.am    1  UNL1       -0.2829
     11 H         142.5706  138.1756  164.7038 H       1  UNL1        0.1549
     12 N         144.9964  142.7620  162.4548 N.pl3   1  UNL1       -0.2978
     13 H         145.9568  142.9656  162.5292 H       1  UNL1        0.1536
     14 C         144.2746  143.0114  161.1637 C.ar    1  UNL1        0.1367
     15 C         144.8033  142.4325  159.8850 C.ar    1  UNL1        0.0685
     16 C         144.0816  142.6819  158.5938 C.ar    1  UNL1        0.1344
     17 N         142.8311  143.5102  158.5816 N.ar    1  UNL1       -0.1980
     18 N         141.9115  143.9230  157.4708 N.ar    1  UNL1       -0.1602
     19 C         140.8144  144.7570  158.0631 C.ar    1  UNL1        0.1339
     20 C         141.0560  144.8597  159.5400 C.ar    1  UNL1        0.1250
     21 C         142.3023  144.0890  159.8604 C.ar    1  UNL1        0.1776
     22 N         143.0241  143.8397  161.1515 N.ar    1  UNL1       -0.2109
     23 N         144.6104  142.1030  157.3151 N.pl3   1  UNL1       -0.3196
     24 H         144.0105  141.6020  156.7163 H       1  UNL1        0.1481
     25 C         146.0532  142.2874  156.9485 C.3     1  UNL1        0.0705
     26 C         147.2190  141.9675  156.0605 C.3     1  UNL1        0.0212
     27 C         147.3863  142.9266  157.2016 C.3     1  UNL1        0.0212
     28 C         140.2012  145.6025  160.5236 C.1     1  UNL1        0.1052
     29 N         139.3464  146.3453  161.5073 N.1     1  UNL1       -0.1907
     30 N         142.0303  140.5242  167.1659 N.pl3   1  UNL1       -0.3034
     31 C         140.6599  141.0342  167.5007 C.3     1  UNL1        0.1123
     32 C         142.6591  139.4546  168.0090 C.3     1  UNL1        0.1077
     33 C         142.3362  139.3654  169.4711 C.3     1  UNL1        0.0868
     34 N         142.9452  138.2803  170.3087 N.3     1  UNL1       -0.3197
     35 H         142.5924  137.3743  170.0004 H       1  UNL1        0.1189
     36 H         142.6973  138.4265  171.2873 H       1  UNL1        0.1189
@<TRIPOS>BOND
     1     7     8    1
     2     8     9    2
     3     8    10   am
     4    10     1    1
     5     1     2   ar
     6     2     3   ar
     7     3    12    1
     8    12    14    1
     9    14    15   ar
    10    15    16   ar
    11    16    23    1
    12    23    25    1
    13    25    26    1
    14    26    27    1
    15    16    17   ar
    16    17    18   ar
    17    18    19   ar
    18    19    20   ar
    19    20    28    1
    20    28    29    3
    21    20    21   ar
    22    21    22   ar
    23     3     4   ar
    24     4     5   ar
    25     5     6   ar
    26     6    30    1
    27    30    31    1
    28    30    32    1
    29    32    33    1
    30    33    34    1
    31     6     1   ar
    32    22    14   ar
    33    27    25    1
    34    21    17   ar
    35    10    11    1
    36    12    13    1
    37    23    24    1
    38    34    35    1
    39    34    36    1
@<TRIPOS>MOLECULE
*****
 36 39 0 0 0
SMALL
GASTEIGER

@<TRIPOS>ATOM
      1 C         140.8743  139.9896  166.6269 C.ar    1  UNL1        0.0650
      2 C         140.4897  139.3298  165.3359 C.ar    1  UNL1        0.0306
      3 C         139.1511  138.6662  165.2023 C.ar    1  UNL1        0.0507
      4 C         138.1971  138.6625  166.3598 C.ar    1  UNL1        0.0160
      5 C         138.5817  139.3224  167.6509 C.ar    1  UNL1        0.0171
      6 C         139.9202  139.9859  167.7844 C.ar    1  UNL1        0.0617
      7 C         143.7097  142.7650  166.5367 C.3     1  UNL1        0.0949
      8 C         142.3711  142.1015  166.4032 C.2     1  UNL1        0.2266
      9 O         141.1906  142.8862  165.9127 O.2     1  UNL1       -0.2748
     10 N         142.2129  140.6532  166.7603 N.am    1  UNL1       -0.2829
     11 H         142.9877  140.1382  167.0823 H       1  UNL1        0.1549
     12 N         138.7664  138.0064  163.9113 N.pl3   1  UNL1       -0.2978
     13 H         138.4416  137.0770  163.9112 H       1  UNL1        0.1536
     14 C         138.8767  138.7627  162.6206 C.ar    1  UNL1        0.1367
     15 C         139.2727  138.0468  161.3634 C.ar    1  UNL1        0.0685
     16 C         139.3830  138.8031  160.0726 C.ar    1  UNL1        0.1344
     17 N         139.0972  140.2753  160.0392 N.ar    1  UNL1       -0.1980
     18 N         139.1233  141.2776  158.9236 N.ar    1  UNL1       -0.1602
     19 C         138.7434  142.6130  159.4915 C.ar    1  UNL1        0.1339
     20 C         138.4825  142.4359  160.9580 C.ar    1  UNL1        0.1250
     21 C         138.7012  140.9911  161.2965 C.ar    1  UNL1        0.1776
     22 N         138.5910  140.2348  162.5872 N.ar    1  UNL1       -0.2109
     23 N         139.7789  138.0872  158.8153 N.pl3   1  UNL1       -0.3196
     24 H         139.1452  137.4740  158.3776 H       1  UNL1        0.1481
     25 C         141.1405  138.3056  158.2251 C.3     1  UNL1        0.0705
     26 C         142.4236  137.7527  157.6792 C.3     1  UNL1        0.0212
     27 C         142.2158  139.2366  157.7487 C.3     1  UNL1        0.0212
     28 C         138.0746  143.5144  161.9175 C.1     1  UNL1        0.1052
     29 N         137.6667  144.5928  162.8769 N.1     1  UNL1       -0.1907
     30 N         140.3049  140.6457  169.0754 N.pl3   1  UNL1       -0.3034
     31 C         139.9492  142.0826  169.3184 C.3     1  UNL1        0.1123
     32 C         141.0451  139.8687  170.1234 C.3     1  UNL1        0.1077
     33 C         142.2712  140.4506  170.7622 C.3     1  UNL1        0.0868
     34 N         143.4633  139.5798  171.0282 N.3     1  UNL1       -0.3197
     35 H         143.2225  138.8784  171.7285 H       1  UNL1        0.1189
     36 H         144.2334  140.1534  171.3724 H       1  UNL1        0.1189
@<TRIPOS>BOND
     1     7     8    1
     2     8     9    2
     3     8    10   am
     4    10     1    1
     5     1     2   ar
     6     2     3   ar
     7     3    12    1
     8    12    14    1
     9    14    15   ar
    10    15    16   ar
    11    16    23    1
    12    23    25    1
    13    25    26    1
    14    26    27    1
    15    16    17   ar
    16    17    18   ar
    17    18    19   ar
    18    19    20   ar
    19    20    28    1
    20    28    29    3
    21    20    21   ar
    22    21    22   ar
    23     3     4   ar
    24     4     5   ar
    25     5     6   ar
    26     6    30    1
    27    30    31    1
    28    30    32    1
    29    32    33    1
    30    33    34    1
    31     6     1   ar
    32    22    14   ar
    33    27    25    1
    34    21    17   ar
    35    10    11    1
    36    12    13    1
    37    23    24    1
    38    34    35    1
    39    34    36    1
@<TRIPOS>MOLECULE
*****
 36 39 0 0 0
SMALL
GASTEIGER

@<TRIPOS>ATOM
      1 C         143.9488  139.9432  159.8938 C.ar    1  UNL1        0.0650
      2 C         144.0322  139.2836  161.2384 C.ar    1  UNL1        0.0306
      3 C         144.3347  140.1026  162.4582 C.ar    1  UNL1        0.0507
      4 C         144.5536  141.5812  162.3333 C.ar    1  UNL1        0.0160
      5 C         144.4702  142.2409  160.9887 C.ar    1  UNL1        0.0171
      6 C         144.1678  141.4219  159.7690 C.ar    1  UNL1        0.0617
      7 C         141.9291  137.9142  157.1453 C.3     1  UNL1        0.0949
      8 C         142.2316  138.7333  158.3650 C.2     1  UNL1        0.2266
      9 O         141.1192  139.1615  159.2756 O.2     1  UNL1       -0.2748
     10 N         143.6464  139.1242  158.6741 N.am    1  UNL1       -0.2829
     11 H         144.3765  138.8431  158.0764 H       1  UNL1        0.1549
     12 N         144.4181  139.4430  163.8028 N.pl3   1  UNL1       -0.2978
     13 H         145.2310  138.9507  164.0600 H       1  UNL1        0.1536
     14 C         143.2629  139.5334  164.7555 C.ar    1  UNL1        0.1367
     15 C         141.9710  138.8419  164.4355 C.ar    1  UNL1        0.0685
     16 C         140.8158  138.9323  165.3882 C.ar    1  UNL1        0.1344
     17 N         140.9528  139.7143  166.6608 N.ar    1  UNL1       -0.1980
     18 N         139.9945  139.9796  167.7838 N.ar    1  UNL1       -0.1602
     19 C         140.6943  140.8352  168.7979 C.ar    1  UNL1        0.1339
     20 C         142.0851  141.0986  168.3016 C.ar    1  UNL1        0.1250
     21 C         142.2449  140.4058  166.9808 C.ar    1  UNL1        0.1776
     22 N         143.3999  140.3154  166.0281 N.ar    1  UNL1       -0.2109
     23 N         139.5238  138.2407  165.0681 N.pl3   1  UNL1       -0.3196
     24 H         139.0960  137.6615  165.7394 H       1  UNL1        0.1481
     25 C         138.8835  138.4318  163.7251 C.3     1  UNL1        0.0705
     26 C         138.4655  137.8790  162.3948 C.3     1  UNL1        0.0212
     27 C         138.1927  139.3156  162.7293 C.3     1  UNL1        0.0212
     28 C         143.1322  141.9119  169.0030 C.1     1  UNL1        0.1052
     29 N         144.1794  142.7253  169.7044 N.1     1  UNL1       -0.1907
     30 N         144.0843  142.0816  158.4244 N.pl3   1  UNL1       -0.3034
     31 C         142.7648  142.5799  157.9141 C.3     1  UNL1        0.1123
     32 C         145.3204  142.2429  157.5902 C.3     1  UNL1        0.1077
     33 C         145.4906  141.4352  156.3377 C.3     1  UNL1        0.0868
     34 N         145.6501  139.9460  156.4215 N.3     1  UNL1       -0.3197
     35 H         146.5293  139.7240  156.8886 H       1  UNL1        0.1189
     36 H         145.6556  139.5512  155.4810 H       1  UNL1        0.1189
@<TRIPOS>BOND
     1     7     8    1
     2     8     9    2
     3     8    10   am
     4    10     1    1
     5     1     2   ar
     6     2     3   ar
     7     3    12    1
     8    12    14    1
     9    14    15   ar
    10    15    16   ar
    11    16    23    1
    12    23    25    1
    13    25    26    1
    14    26    27    1
    15    16    17   ar
    16    17    18   ar
    17    18    19   ar
    18    19    20   ar
    19    20    28    1
    20    28    29    3
    21    20    21   ar
    22    21    22   ar
    23     3     4   ar
    24     4     5   ar
    25     5     6   ar
    26     6    30    1
    27    30    31    1
    28    30    32    1
    29    32    33    1
    30    33    34    1
    31     6     1   ar
    32    22    14   ar
    33    27    25    1
    34    21    17   ar
    35    10    11    1
    36    12    13    1
    37    23    24    1
    38    34    35    1
    39    34    36    1
@<TRIPOS>MOLECULE
*****
 36 39 0 0 0
SMALL
GASTEIGER

@<TRIPOS>ATOM
      1 C         141.5282  142.0259  165.7727 C.ar    1  UNL1        0.0650
      2 C         141.2954  142.4675  164.3582 C.ar    1  UNL1        0.0306
      3 C         140.2176  143.4647  164.0515 C.ar    1  UNL1        0.0507
      4 C         139.3725  144.0202  165.1593 C.ar    1  UNL1        0.0160
      5 C         139.6053  143.5785  166.5739 C.ar    1  UNL1        0.0171
      6 C         140.6830  142.5814  166.8806 C.ar    1  UNL1        0.0617
      7 C         143.3552  138.5697  166.4558 C.3     1  UNL1        0.0949
      8 C         142.2774  139.5668  166.1492 C.2     1  UNL1        0.2266
      9 O         140.8711  139.1021  165.9123 O.2     1  UNL1       -0.2748
     10 N         142.6060  141.0287  166.0794 N.am    1  UNL1       -0.2829
     11 H         143.5290  141.3338  166.2348 H       1  UNL1        0.1549
     12 N         139.9848  143.9063  162.6370 N.pl3   1  UNL1       -0.2978
     13 H         140.2540  144.8096  162.3527 H       1  UNL1        0.1536
     14 C         139.3419  142.9715  161.6557 C.ar    1  UNL1        0.1367
     15 C         138.7781  141.6632  162.1248 C.ar    1  UNL1        0.0685
     16 C         138.1351  140.7285  161.1435 C.ar    1  UNL1        0.1344
     17 N         138.0562  141.1022  159.6929 N.ar    1  UNL1       -0.1980
     18 N         137.4855  140.3898  158.5026 N.ar    1  UNL1       -0.1602
     19 C         137.6968  141.2580  157.2978 C.ar    1  UNL1        0.1339
     20 C         138.3979  142.5069  157.7434 C.ar    1  UNL1        0.1250
     21 C         138.6201  142.4106  159.2238 C.ar    1  UNL1        0.1776
     22 N         139.2629  143.3453  160.2051 N.ar    1  UNL1       -0.2109
     23 N         137.5713  139.4200  161.6127 N.pl3   1  UNL1       -0.3196
     24 H         136.6414  139.1791  161.3972 H       1  UNL1        0.1481
     25 C         138.4243  138.4788  162.4105 C.3     1  UNL1        0.0705
     26 C         138.6457  137.6550  163.6443 C.3     1  UNL1        0.0212
     27 C         139.6803  137.6722  162.5583 C.3     1  UNL1        0.0212
     28 C         138.8054  143.6511  156.8633 C.1     1  UNL1        0.1052
     29 N         139.2129  144.7954  155.9832 N.1     1  UNL1       -0.1907
     30 N         140.9158  142.1398  168.2950 N.pl3   1  UNL1       -0.3034
     31 C         141.9808  142.7985  169.1208 C.3     1  UNL1        0.1123
     32 C         140.0835  141.0395  168.8838 C.3     1  UNL1        0.1077
     33 C         140.7471  139.8811  169.5676 C.3     1  UNL1        0.0868
     34 N         140.3177  139.4786  170.9474 N.3     1  UNL1       -0.3197
     35 H         140.5503  140.2218  171.6062 H       1  UNL1        0.1189
     36 H         140.8006  138.6216  171.2174 H       1  UNL1        0.1189
@<TRIPOS>BOND
     1     7     8    1
     2     8     9    2
     3     8    10   am
     4    10     1    1
     5     1     2   ar
     6     2     3   ar
     7     3    12    1
     8    12    14    1
     9    14    15   ar
    10    15    16   ar
    11    16    23    1
    12    23    25    1
    13    25    26    1
    14    26    27    1
    15    16    17   ar
    16    17    18   ar
    17    18    19   ar
    18    19    20   ar
    19    20    28    1
    20    28    29    3
    21    20    21   ar
    22    21    22   ar
    23     3     4   ar
    24     4     5   ar
    25     5     6   ar
    26     6    30    1
    27    30    31    1
    28    30    32    1
    29    32    33    1
    30    33    34    1
    31     6     1   ar
    32    22    14   ar
    33    27    25    1
    34    21    17   ar
    35    10    11    1
    36    12    13    1
    37    23    24    1
    38    34    35    1
    39    34    36    1
@<TRIPOS>MOLECULE
*****
 36 39 0 0 0
SMALL
GASTEIGER

@<TRIPOS>ATOM
      1 C         143.9965  140.1190  160.3863 C.ar    1  UNL1        0.0650
      2 C         144.0506  139.6080  161.7955 C.ar    1  UNL1        0.0306
      3 C         144.0787  140.5737  162.9430 C.ar    1  UNL1        0.0507
      4 C         144.0526  142.0504  162.6813 C.ar    1  UNL1        0.0160
      5 C         143.9985  142.5615  161.2720 C.ar    1  UNL1        0.0171
      6 C         143.9704  141.5959  160.1246 C.ar    1  UNL1        0.0617
      7 C         142.6427  137.5691  157.6632 C.3     1  UNL1        0.0949
      8 C         142.6707  138.5348  158.8106 C.2     1  UNL1        0.2266
      9 O         141.4010  138.8821  159.5299 O.2     1  UNL1       -0.2748
     10 N         143.9684  139.1533  159.2389 N.am    1  UNL1       -0.2829
     11 H         144.8018  138.9254  158.7668 H       1  UNL1        0.1549
     12 N         144.1328  140.0627  164.3523 N.pl3   1  UNL1       -0.2978
     13 H         144.9979  139.8215  164.7555 H       1  UNL1        0.1536
     14 C         142.8687  139.9192  165.1470 C.ar    1  UNL1        0.1367
     15 C         142.8967  140.0865  166.6373 C.ar    1  UNL1        0.0685
     16 C         141.6326  139.9431  167.4321 C.ar    1  UNL1        0.1344
     17 N         140.3406  139.6322  166.7364 N.ar    1  UNL1       -0.1980
     18 N         138.9457  139.4345  167.2514 N.ar    1  UNL1       -0.1602
     19 C         138.0557  139.1449  166.0792 C.ar    1  UNL1        0.1339
     20 C         138.9004  139.1637  164.8399 C.ar    1  UNL1        0.1250
     21 C         140.3126  139.4649  165.2460 C.ar    1  UNL1        0.1776
     22 N         141.5767  139.6083  164.4513 N.ar    1  UNL1       -0.2109
     23 N         141.6607  140.1104  168.9225 N.pl3   1  UNL1       -0.3196
     24 H         141.2205  139.4464  169.5008 H       1  UNL1        0.1481
     25 C         142.3595  141.2896  169.5317 C.3     1  UNL1        0.0705
     26 C         142.4261  142.3616  170.5788 C.3     1  UNL1        0.0212
     27 C         143.5033  142.2601  169.5398 C.3     1  UNL1        0.0212
     28 C         138.4177  138.9234  163.4401 C.1     1  UNL1        0.1052
     29 N         137.9350  138.6832  162.0404 N.1     1  UNL1       -0.1907
     30 N         143.9163  142.1069  158.7154 N.pl3   1  UNL1       -0.3034
     31 C         142.5967  142.2323  158.0132 C.3     1  UNL1        0.1123
     32 C         145.1817  142.4925  158.0083 C.3     1  UNL1        0.1077
     33 C         145.6542  141.6959  156.8284 C.3     1  UNL1        0.0868
     34 N         145.4145  140.2160  156.7781 N.3     1  UNL1       -0.3197
     35 H         145.9490  139.7597  157.5173 H       1  UNL1        0.1189
     36 H         145.7105  139.8542  155.8715 H       1  UNL1        0.1189
@<TRIPOS>BOND
     1     7     8    1
     2     8     9    2
     3     8    10   am
     4    10     1    1
     5     1     2   ar
     6     2     3   ar
     7     3    12    1
     8    12    14    1
     9    14    15   ar
    10    15    16   ar
    11    16    23    1
    12    23    25    1
    13    25    26    1
    14    26    27    1
    15    16    17   ar
    16    17    18   ar
    17    18    19   ar
    18    19    20   ar
    19    20    28    1
    20    28    29    3
    21    20    21   ar
    22    21    22   ar
    23     3     4   ar
    24     4     5   ar
    25     5     6   ar
    26     6    30    1
    27    30    31    1
    28    30    32    1
    29    32    33    1
    30    33    34    1
    31     6     1   ar
    32    22    14   ar
    33    27    25    1
    34    21    17   ar
    35    10    11    1
    36    12    13    1
    37    23    24    1
    38    34    35    1
    39    34    36    1
@<TRIPOS>MOLECULE
*****
 36 39 0 0 0
SMALL
GASTEIGER

@<TRIPOS>ATOM
      1 C         139.7981  143.7990  160.8503 C.ar    1  UNL1        0.0650
      2 C         139.2409  143.8315  162.2426 C.ar    1  UNL1        0.0306
      3 C         140.1055  144.2723  163.3864 C.ar    1  UNL1        0.0507
      4 C         141.5273  144.6805  163.1379 C.ar    1  UNL1        0.0160
      5 C         142.0845  144.6480  161.7455 C.ar    1  UNL1        0.0171
      6 C         141.2199  144.2073  160.6018 C.ar    1  UNL1        0.0617
      7 C         138.0110  141.4680  158.1814 C.3     1  UNL1        0.0949
      8 C         138.8757  141.9088  159.3252 C.2     1  UNL1        0.2266
      9 O         139.6826  140.9000  160.0875 O.2     1  UNL1       -0.2748
     10 N         138.9334  143.3583  159.7066 N.am    1  UNL1       -0.2829
     11 H         138.4038  144.0204  159.2062 H       1  UNL1        0.1549
     12 N         139.5484  144.3048  164.7787 N.pl3   1  UNL1       -0.2978
     13 H         139.1304  145.1271  165.1226 H       1  UNL1        0.1536
     14 C         139.6281  143.0842  165.6471 C.ar    1  UNL1        0.1367
     15 C         138.9517  141.8151  165.2208 C.ar    1  UNL1        0.0685
     16 C         139.0314  140.5945  166.0892 C.ar    1  UNL1        0.1344
     17 N         139.7875  140.6432  167.3838 N.ar    1  UNL1       -0.1980
     18 N         140.0374  139.6076  168.4397 N.ar    1  UNL1       -0.1602
     19 C         140.8682  140.2367  169.5185 C.ar    1  UNL1        0.1339
     20 C         141.1318  141.6612  169.1294 C.ar    1  UNL1        0.1250
     21 C         140.4639  141.9124  167.8100 C.ar    1  UNL1        0.1776
     22 N         140.3841  143.1329  166.9416 N.ar    1  UNL1       -0.2109
     23 N         138.3550  139.3253  165.6629 N.pl3   1  UNL1       -0.3196
     24 H         137.7229  138.8765  166.2698 H       1  UNL1        0.1481
     25 C         138.6417  138.7400  164.3119 C.3     1  UNL1        0.0705
     26 C         139.3495  137.7311  163.4569 C.3     1  UNL1        0.0212
     27 C         138.4303  138.7351  162.8269 C.3     1  UNL1        0.0212
     28 C         141.9242  142.6591  169.9207 C.1     1  UNL1        0.1052
     29 N         142.7166  143.6571  170.7120 N.1     1  UNL1       -0.1907
     30 N         141.7771  144.1748  159.2095 N.pl3   1  UNL1       -0.3034
     31 C         142.3922  142.9146  158.6771 C.3     1  UNL1        0.1123
     32 C         141.7191  145.4025  158.3497 C.3     1  UNL1        0.1077
     33 C         140.4654  145.7307  157.5944 C.3     1  UNL1        0.0868
     34 N         139.6579  144.6325  156.9682 N.3     1  UNL1       -0.3197
     35 H         140.1984  144.1969  156.2208 H       1  UNL1        0.1189
     36 H         138.7969  145.0208  156.5832 H       1  UNL1        0.1189
@<TRIPOS>BOND
     1     7     8    1
     2     8     9    2
     3     8    10   am
     4    10     1    1
     5     1     2   ar
     6     2     3   ar
     7     3    12    1
     8    12    14    1
     9    14    15   ar
    10    15    16   ar
    11    16    23    1
    12    23    25    1
    13    25    26    1
    14    26    27    1
    15    16    17   ar
    16    17    18   ar
    17    18    19   ar
    18    19    20   ar
    19    20    28    1
    20    28    29    3
    21    20    21   ar
    22    21    22   ar
    23     3     4   ar
    24     4     5   ar
    25     5     6   ar
    26     6    30    1
    27    30    31    1
    28    30    32    1
    29    32    33    1
    30    33    34    1
    31     6     1   ar
    32    22    14   ar
    33    27    25    1
    34    21    17   ar
    35    10    11    1
    36    12    13    1
    37    23    24    1
    38    34    35    1
    39    34    36    1
@<TRIPOS>MOLECULE
*****
 36 39 0 0 0
SMALL
GASTEIGER

@<TRIPOS>ATOM
      1 C         138.4724  140.1338  164.1460 C.ar    1  UNL1        0.0650
      2 C         138.3977  139.6796  162.7184 C.ar    1  UNL1        0.0306
      3 C         139.0651  138.4025  162.3016 C.ar    1  UNL1        0.0507
      4 C         139.8073  137.5796  163.3125 C.ar    1  UNL1        0.0160
      5 C         139.8820  138.0338  164.7403 C.ar    1  UNL1        0.0171
      6 C         139.2147  139.3108  165.1569 C.ar    1  UNL1        0.0617
      7 C         137.8139  144.0034  164.7309 C.3     1  UNL1        0.0949
      8 C         138.4814  142.7264  164.3142 C.2     1  UNL1        0.2266
      9 O         139.8253  142.7648  163.6490 O.2     1  UNL1       -0.2748
     10 N         137.8050  141.4108  164.5627 N.am    1  UNL1       -0.2829
     11 H         136.9229  141.3856  164.9993 H       1  UNL1        0.1549
     12 N         138.9903  137.9483  160.8740 N.pl3   1  UNL1       -0.2978
     13 H         138.1792  137.4999  160.5419 H       1  UNL1        0.1536
     14 C         140.1515  138.1773  159.9524 C.ar    1  UNL1        0.1367
     15 C         141.5223  138.4078  160.5160 C.ar    1  UNL1        0.0685
     16 C         142.6834  138.6368  159.5943 C.ar    1  UNL1        0.1344
     17 N         142.4737  138.6353  158.1091 N.ar    1  UNL1       -0.1980
     18 N         143.4197  138.8314  156.9617 N.ar    1  UNL1       -0.1602
     19 C         142.6335  138.7221  155.6889 C.ar    1  UNL1        0.1339
     20 C         141.2016  138.4584  156.0497 C.ar    1  UNL1        0.1250
     21 C         141.1028  138.4047  157.5455 C.ar    1  UNL1        0.1776
     22 N         139.9417  138.1757  158.4671 N.ar    1  UNL1       -0.2109
     23 N         144.0543  138.8673  160.1580 N.pl3   1  UNL1       -0.3196
     24 H         144.8503  138.6488  159.6215 H       1  UNL1        0.1481
     25 C         144.2122  139.4308  161.5392 C.3     1  UNL1        0.0705
     26 C         144.2431  139.2355  163.0261 C.3     1  UNL1        0.0212
     27 C         144.4548  140.6019  162.4445 C.3     1  UNL1        0.0212
     28 C         140.0676  138.2797  155.0842 C.1     1  UNL1        0.1052
     29 N         138.9337  138.1011  154.1187 N.1     1  UNL1       -0.1907
     30 N         139.2894  139.7650  166.5845 N.pl3   1  UNL1       -0.3034
     31 C         140.2604  140.8376  166.9805 C.3     1  UNL1        0.1123
     32 C         138.3932  139.1466  167.6162 C.3     1  UNL1        0.1077
     33 C         137.2155  138.3216  167.1891 C.3     1  UNL1        0.0868
     34 N         137.2993  136.8241  167.2166 N.3     1  UNL1       -0.3197
     35 H         137.9859  136.5094  166.5311 H       1  UNL1        0.1189
     36 H         136.3869  136.4283  166.9904 H       1  UNL1        0.1189
@<TRIPOS>BOND
     1     7     8    1
     2     8     9    2
     3     8    10   am
     4    10     1    1
     5     1     2   ar
     6     2     3   ar
     7     3    12    1
     8    12    14    1
     9    14    15   ar
    10    15    16   ar
    11    16    23    1
    12    23    25    1
    13    25    26    1
    14    26    27    1
    15    16    17   ar
    16    17    18   ar
    17    18    19   ar
    18    19    20   ar
    19    20    28    1
    20    28    29    3
    21    20    21   ar
    22    21    22   ar
    23     3     4   ar
    24     4     5   ar
    25     5     6   ar
    26     6    30    1
    27    30    31    1
    28    30    32    1
    29    32    33    1
    30    33    34    1
    31     6     1   ar
    32    22    14   ar
    33    27    25    1
    34    21    17   ar
    35    10    11    1
    36    12    13    1
    37    23    24    1
    38    34    35    1
    39    34    36    1
