@<TRIPOS>MOLECULE
*****
 32 34 0 0 0
SMALL
GASTEIGER

@<TRIPOS>ATOM
      1 C         139.9376  140.6626  167.6274 C.3     1  UNL1        0.0161
      2 C         141.1097  140.4549  168.5400 C.3     1  UNL1        0.1083
      3 C         142.0230  140.3887  167.3520 C.ar    1  UNL1       -0.0127
      4 C         142.4131  141.6471  166.6348 C.ar    1  UNL1       -0.0033
      5 C         143.3265  141.5808  165.4468 C.ar    1  UNL1        0.0064
      6 C         143.8497  140.2562  164.9760 C.ar    1  UNL1        0.0345
      7 BR        144.7631  140.1899  163.7879 Br      1  UNL1       -0.0490
      8 C         143.4596  138.9979  165.6931 C.ar    1  UNL1        0.0064
      9 C         142.5462  139.0641  166.8812 C.ar    1  UNL1       -0.0033
     10 C         142.2818  140.2473  169.4527 C.3     1  UNL1        0.0138
     11 C         142.6337  138.8658  169.9191 C.3     1  UNL1        0.0009
     12 C         143.1020  141.4212  169.8990 C.3     1  UNL1        0.0009
     13 C         140.1963  140.5212  169.7280 C.2     1  UNL1        0.3199
     14 O         140.1321  139.3718  170.6897 O.2     1  UNL1       -0.2498
     15 C         139.9482  142.9685  170.5643 C.3     1  UNL1        0.2556
     16 O         139.3472  141.7369  169.9545 O.3     1  UNL1       -0.4442
     17 C         139.0126  139.5215  167.3229 C.3     1  UNL1        0.0182
     18 C         138.6852  139.1808  165.8994 C.3     1  UNL1        0.0721
     19 N         138.9540  140.1755  164.8092 N.3     1  UNL1       -0.2727
     20 C         137.9567  141.2575  164.5185 C.3     1  UNL1        0.0724
     21 C         138.2256  142.2521  163.4283 C.3     1  UNL1        0.0218
     22 C         139.4918  142.1647  162.6289 C.3     1  UNL1        0.0281
     23 C         140.4891  141.0827  162.9196 C.3     1  UNL1        0.0218
     24 C         140.2202  140.0881  164.0097 C.3     1  UNL1        0.0724
     25 C         139.7606  143.1593  161.5387 C.ar    1  UNL1        0.0115
     26 C         139.4848  142.7982  160.1092 C.ar    1  UNL1       -0.0013
     27 C         139.7537  143.7929  159.0190 C.ar    1  UNL1       -0.0001
     28 C         140.2983  145.1487  159.3584 C.ar    1  UNL1        0.0031
     29 C         140.5741  145.5098  160.7880 C.ar    1  UNL1        0.0366
     30 C         140.3053  144.5151  161.8781 C.ar    1  UNL1        0.1347
     31 O         140.5811  144.8763  163.3077 O.3     1  UNL1       -0.4717
     32 C         141.9775  145.2119  163.7404 C.3     1  UNL1        0.2525
@<TRIPOS>BOND
     1    15    16    1
     2    16    13    1
     3    13    14    2
     4    13     2    1
     5     2     1    1
     6     1    17    1
     7    17    18    1
     8    18    19    1
     9    19    20    1
    10    20    21    1
    11    21    22    1
    12    22    25    1
    13    25    26   ar
    14    26    27   ar
    15    27    28   ar
    16    28    29   ar
    17    29    30   ar
    18    30    31    1
    19    31    32    1
    20    22    23    1
    21    23    24    1
    22     2     3    1
    23     3     4   ar
    24     4     5   ar
    25     5     6   ar
    26     6     7    1
    27     6     8   ar
    28     8     9   ar
    29     2    10    1
    30    10    11    1
    31    10    12    1
    32    24    19    1
    33     9     3   ar
    34    30    25   ar
@<TRIPOS>MOLECULE
*****
 32 34 0 0 0
SMALL
GASTEIGER

@<TRIPOS>ATOM
      1 C         140.1765  141.0631  168.1551 C.3     1  UNL1        0.0161
      2 C         141.4537  141.0731  168.9416 C.3     1  UNL1        0.1083
      3 C         142.2189  140.7100  167.7037 C.ar    1  UNL1       -0.0127
      4 C         142.6113  141.7766  166.7247 C.ar    1  UNL1       -0.0033
      5 C         143.3765  141.4135  165.4867 C.ar    1  UNL1        0.0064
      6 C         143.7494  139.9838  165.2277 C.ar    1  UNL1        0.0345
      7 BR        144.5146  139.6207  163.9897 Br      1  UNL1       -0.0490
      8 C         143.3570  138.9173  166.2067 C.ar    1  UNL1        0.0064
      9 C         142.5918  139.2803  167.4447 C.ar    1  UNL1       -0.0033
     10 C         142.7308  141.0830  169.7282 C.3     1  UNL1        0.0138
     11 C         143.6881  142.2295  169.5896 C.3     1  UNL1        0.0009
     12 C         143.0508  139.9464  170.6534 C.3     1  UNL1        0.0009
     13 C         140.6884  141.4361  170.1796 C.2     1  UNL1        0.3199
     14 O         139.8022  140.4209  170.8383 O.2     1  UNL1       -0.2498
     15 C         140.4329  144.0100  169.9350 C.3     1  UNL1        0.2556
     16 O         140.8094  142.8145  170.7589 O.3     1  UNL1       -0.4442
     17 C         139.4052  139.7868  167.9932 C.3     1  UNL1        0.0182
     18 C         138.5406  139.5810  166.7849 C.3     1  UNL1        0.0721
     19 N         139.1691  139.3068  165.4508 N.3     1  UNL1       -0.2727
     20 C         139.8713  140.4073  164.7121 C.3     1  UNL1        0.0724
     21 C         140.4997  140.1330  163.3780 C.3     1  UNL1        0.0218
     22 C         140.4260  138.7582  162.7827 C.3     1  UNL1        0.0281
     23 C         139.7238  137.6576  163.5214 C.3     1  UNL1        0.0218
     24 C         139.0953  137.9319  164.8555 C.3     1  UNL1        0.0724
     25 C         141.0544  138.4839  161.4485 C.ar    1  UNL1        0.0115
     26 C         142.4422  137.9195  161.3751 C.ar    1  UNL1       -0.0013
     27 C         143.0707  137.6452  160.0409 C.ar    1  UNL1       -0.0001
     28 C         142.3113  137.9354  158.7803 C.ar    1  UNL1        0.0031
     29 C         140.9235  138.4998  158.8538 C.ar    1  UNL1        0.0366
     30 C         140.2951  138.7740  160.1879 C.ar    1  UNL1        0.1347
     31 O         138.9072  139.3385  160.2614 O.3     1  UNL1       -0.4717
     32 C         138.6956  140.8215  160.1839 C.3     1  UNL1        0.2525
@<TRIPOS>BOND
     1    15    16    1
     2    16    13    1
     3    13    14    2
     4    13     2    1
     5     2     1    1
     6     1    17    1
     7    17    18    1
     8    18    19    1
     9    19    20    1
    10    20    21    1
    11    21    22    1
    12    22    25    1
    13    25    26   ar
    14    26    27   ar
    15    27    28   ar
    16    28    29   ar
    17    29    30   ar
    18    30    31    1
    19    31    32    1
    20    22    23    1
    21    23    24    1
    22     2     3    1
    23     3     4   ar
    24     4     5   ar
    25     5     6   ar
    26     6     7    1
    27     6     8   ar
    28     8     9   ar
    29     2    10    1
    30    10    11    1
    31    10    12    1
    32    24    19    1
    33     9     3   ar
    34    30    25   ar
@<TRIPOS>MOLECULE
*****
 32 34 0 0 0
SMALL
GASTEIGER

@<TRIPOS>ATOM
      1 C         140.0508  139.7792  167.9736 C.3     1  UNL1        0.0161
      2 C         140.6712  141.0602  168.4471 C.3     1  UNL1        0.1083
      3 C         140.8958  141.4775  167.0240 C.ar    1  UNL1       -0.0127
      4 C         141.8120  140.6797  166.1442 C.ar    1  UNL1       -0.0033
      5 C         142.0366  141.0971  164.7210 C.ar    1  UNL1        0.0064
      6 C         141.3451  142.3122  164.1777 C.ar    1  UNL1        0.0345
      7 BR        141.5697  142.7296  162.7545 Br      1  UNL1       -0.0490
      8 C         140.4289  143.1100  165.0575 C.ar    1  UNL1        0.0064
      9 C         140.2042  142.6927  166.4806 C.ar    1  UNL1       -0.0033
     10 C         141.2915  142.3412  168.9207 C.3     1  UNL1        0.0138
     11 C         142.7804  142.5165  168.8717 C.3     1  UNL1        0.0009
     12 C         140.4229  143.4469  169.4433 C.3     1  UNL1        0.0009
     13 C         140.4465  140.6429  169.8703 C.2     1  UNL1        0.3199
     14 O         139.0985  140.8270  170.5020 O.2     1  UNL1       -0.2498
     15 C         142.4725  139.0241  170.0291 C.3     1  UNL1        0.2556
     16 O         141.5699  140.0414  170.6618 O.3     1  UNL1       -0.4442
     17 C         138.5865  139.7290  167.6519 C.3     1  UNL1        0.0182
     18 C         138.0735  138.7439  166.6438 C.3     1  UNL1        0.0721
     19 N         138.6122  138.7539  165.2439 N.3     1  UNL1       -0.2727
     20 C         139.4205  137.5938  164.7430 C.3     1  UNL1        0.0724
     21 C         139.9592  137.6039  163.3432 C.3     1  UNL1        0.0218
     22 C         139.6896  138.7740  162.4442 C.3     1  UNL1        0.0281
     23 C         138.8813  139.9340  162.9451 C.3     1  UNL1        0.0218
     24 C         138.3426  139.9240  164.3449 C.3     1  UNL1        0.0724
     25 C         140.2283  138.7840  161.0442 C.ar    1  UNL1        0.0115
     26 C         139.3129  138.5168  159.8864 C.ar    1  UNL1       -0.0013
     27 C         139.8516  138.5268  158.4865 C.ar    1  UNL1       -0.0001
     28 C         141.3058  138.8040  158.2445 C.ar    1  UNL1        0.0031
     29 C         142.2212  139.0711  159.4024 C.ar    1  UNL1        0.0366
     30 C         141.6825  139.0611  160.8022 C.ar    1  UNL1        0.1347
     31 O         142.5979  139.3283  161.9601 O.3     1  UNL1       -0.4717
     32 C         143.6415  138.3198  162.3393 C.3     1  UNL1        0.2525
@<TRIPOS>BOND
     1    15    16    1
     2    16    13    1
     3    13    14    2
     4    13     2    1
     5     2     1    1
     6     1    17    1
     7    17    18    1
     8    18    19    1
     9    19    20    1
    10    20    21    1
    11    21    22    1
    12    22    25    1
    13    25    26   ar
    14    26    27   ar
    15    27    28   ar
    16    28    29   ar
    17    29    30   ar
    18    30    31    1
    19    31    32    1
    20    22    23    1
    21    23    24    1
    22     2     3    1
    23     3     4   ar
    24     4     5   ar
    25     5     6   ar
    26     6     7    1
    27     6     8   ar
    28     8     9   ar
    29     2    10    1
    30    10    11    1
    31    10    12    1
    32    24    19    1
    33     9     3   ar
    34    30    25   ar
@<TRIPOS>MOLECULE
*****
 32 34 0 0 0
SMALL
GASTEIGER

@<TRIPOS>ATOM
      1 C         140.4688  140.1647  167.5283 C.3     1  UNL1        0.0161
      2 C         140.8584  141.3650  168.3391 C.3     1  UNL1        0.1083
      3 C         141.3028  142.0651  167.0892 C.ar    1  UNL1       -0.0127
      4 C         142.7084  141.8952  166.5937 C.ar    1  UNL1       -0.0033
      5 C         143.1528  142.5954  165.3437 C.ar    1  UNL1        0.0064
      6 C         142.1916  143.4653  164.5892 C.ar    1  UNL1        0.0345
      7 BR        142.6360  144.1654  163.3392 Br      1  UNL1       -0.0490
      8 C         140.7860  143.6351  165.0847 C.ar    1  UNL1        0.0064
      9 C         140.3416  142.9350  166.3346 C.ar    1  UNL1       -0.0033
     10 C         141.2480  142.5653  169.1499 C.3     1  UNL1        0.0138
     11 C         140.2910  143.7104  169.3020 C.3     1  UNL1        0.0009
     12 C         142.5945  142.6206  169.8086 C.3     1  UNL1        0.0009
     13 C         140.4140  140.6650  169.5890 C.2     1  UNL1        0.3199
     14 O         139.3721  141.2900  170.4687 O.2     1  UNL1       -0.2498
     15 C         142.4953  139.2091  170.1355 C.3     1  UNL1        0.2556
     16 O         141.0115  139.3398  169.9594 O.3     1  UNL1       -0.4442
     17 C         139.0360  139.9578  167.1355 C.3     1  UNL1        0.0182
     18 C         138.7035  139.3419  165.8088 C.3     1  UNL1        0.0721
     19 N         139.0238  140.0752  164.5400 N.3     1  UNL1       -0.2727
     20 C         137.9549  140.8564  163.8350 C.3     1  UNL1        0.0724
     21 C         138.2753  141.5897  162.5663 C.3     1  UNL1        0.0218
     22 C         139.6645  141.5417  162.0026 C.3     1  UNL1        0.0281
     23 C         140.7334  140.7604  162.7076 C.3     1  UNL1        0.0218
     24 C         140.4130  140.0272  163.9763 C.3     1  UNL1        0.0724
     25 C         139.9848  142.2750  160.7338 C.ar    1  UNL1        0.0115
     26 C         140.5095  141.5245  159.5458 C.ar    1  UNL1       -0.0013
     27 C         140.8298  142.2578  158.2770 C.ar    1  UNL1       -0.0001
     28 C         140.6254  143.7416  158.1963 C.ar    1  UNL1        0.0031
     29 C         140.1006  144.4921  159.3844 C.ar    1  UNL1        0.0366
     30 C         139.7803  143.7588  160.6531 C.ar    1  UNL1        0.1347
     31 O         139.2556  144.5093  161.8412 O.3     1  UNL1       -0.4717
     32 C         139.5941  145.9594  162.0216 C.3     1  UNL1        0.2525
@<TRIPOS>BOND
     1    15    16    1
     2    16    13    1
     3    13    14    2
     4    13     2    1
     5     2     1    1
     6     1    17    1
     7    17    18    1
     8    18    19    1
     9    19    20    1
    10    20    21    1
    11    21    22    1
    12    22    25    1
    13    25    26   ar
    14    26    27   ar
    15    27    28   ar
    16    28    29   ar
    17    29    30   ar
    18    30    31    1
    19    31    32    1
    20    22    23    1
    21    23    24    1
    22     2     3    1
    23     3     4   ar
    24     4     5   ar
    25     5     6   ar
    26     6     7    1
    27     6     8   ar
    28     8     9   ar
    29     2    10    1
    30    10    11    1
    31    10    12    1
    32    24    19    1
    33     9     3   ar
    34    30    25   ar
@<TRIPOS>MOLECULE
*****
 32 34 0 0 0
SMALL
GASTEIGER

@<TRIPOS>ATOM
      1 C         141.8764  139.9874  166.6698 C.3     1  UNL1        0.0161
      2 C         142.0917  141.0377  167.7188 C.3     1  UNL1        0.1083
      3 C         142.4019  142.0424  166.6492 C.ar    1  UNL1       -0.0127
      4 C         143.8011  142.5583  166.4878 C.ar    1  UNL1       -0.0033
      5 C         144.1113  143.5631  165.4180 C.ar    1  UNL1        0.0064
      6 C         143.0223  144.0520  164.5098 C.ar    1  UNL1        0.0345
      7 BR        143.3324  145.0568  163.4401 Br      1  UNL1       -0.0490
      8 C         141.6230  143.5361  164.6712 C.ar    1  UNL1        0.0064
      9 C         141.3128  142.5314  165.7409 C.ar    1  UNL1       -0.0033
     10 C         142.3070  142.0880  168.7678 C.3     1  UNL1        0.0138
     11 C         143.6269  142.1831  169.4740 C.3     1  UNL1        0.0009
     12 C         141.2024  143.0431  169.1107 C.3     1  UNL1        0.0009
     13 C         141.7815  140.0329  168.7884 C.2     1  UNL1        0.3199
     14 O         142.8902  139.2473  169.4238 O.2     1  UNL1       -0.2498
     15 C         139.9958  139.9284  170.6727 C.3     1  UNL1        0.2556
     16 O         140.3626  139.8137  169.2228 O.3     1  UNL1       -0.4442
     17 C         143.0531  139.2906  166.0534 C.3     1  UNL1        0.0182
     18 C         142.9971  138.8483  164.6212 C.3     1  UNL1        0.0721
     19 N         142.8214  139.8618  163.5295 N.3     1  UNL1       -0.2727
     20 C         141.4701  140.0749  162.9143 C.3     1  UNL1        0.0724
     21 C         141.2944  141.0884  161.8226 C.3     1  UNL1        0.0218
     22 C         142.4700  141.8889  161.3461 C.3     1  UNL1        0.0281
     23 C         143.8214  141.6759  161.9613 C.3     1  UNL1        0.0218
     24 C         143.9970  140.6624  163.0530 C.3     1  UNL1        0.0724
     25 C         142.2943  142.9025  160.2544 C.ar    1  UNL1        0.0115
     26 C         143.1444  142.8309  159.0206 C.ar    1  UNL1       -0.0013
     27 C         142.9687  143.8445  157.9288 C.ar    1  UNL1       -0.0001
     28 C         141.9429  144.9296  158.0709 C.ar    1  UNL1        0.0031
     29 C         141.0928  145.0012  159.3048 C.ar    1  UNL1        0.0366
     30 C         141.2685  143.9877  160.3965 C.ar    1  UNL1        0.1347
     31 O         140.4184  144.0592  161.6303 O.3     1  UNL1       -0.4717
     32 C         139.7171  145.3369  161.9848 C.3     1  UNL1        0.2525
@<TRIPOS>BOND
     1    15    16    1
     2    16    13    1
     3    13    14    2
     4    13     2    1
     5     2     1    1
     6     1    17    1
     7    17    18    1
     8    18    19    1
     9    19    20    1
    10    20    21    1
    11    21    22    1
    12    22    25    1
    13    25    26   ar
    14    26    27   ar
    15    27    28   ar
    16    28    29   ar
    17    29    30   ar
    18    30    31    1
    19    31    32    1
    20    22    23    1
    21    23    24    1
    22     2     3    1
    23     3     4   ar
    24     4     5   ar
    25     5     6   ar
    26     6     7    1
    27     6     8   ar
    28     8     9   ar
    29     2    10    1
    30    10    11    1
    31    10    12    1
    32    24    19    1
    33     9     3   ar
    34    30    25   ar
@<TRIPOS>MOLECULE
*****
 32 34 0 0 0
SMALL
GASTEIGER

@<TRIPOS>ATOM
      1 C         141.7035  139.9838  166.6446 C.3     1  UNL1        0.0161
      2 C         141.7610  141.1160  167.6267 C.3     1  UNL1        0.1083
      3 C         142.2673  142.0265  166.5475 C.ar    1  UNL1       -0.0127
      4 C         141.3600  142.4368  165.4257 C.ar    1  UNL1       -0.0033
      5 C         141.8662  143.3472  164.3464 C.ar    1  UNL1        0.0064
      6 C         143.2797  143.8473  164.3889 C.ar    1  UNL1        0.0345
      7 BR        143.7860  144.7578  163.3096 Br      1  UNL1       -0.0490
      8 C         144.1870  143.4370  165.5107 C.ar    1  UNL1        0.0064
      9 C         143.6808  142.5266  166.5900 C.ar    1  UNL1       -0.0033
     10 C         141.8186  142.2483  168.6089 C.3     1  UNL1        0.0138
     11 C         140.6420  143.1653  168.7662 C.3     1  UNL1        0.0009
     12 C         143.0529  142.4637  169.4337 C.3     1  UNL1        0.0009
     13 C         141.2548  140.2056  168.7060 C.2     1  UNL1        0.3199
     14 O         142.1948  139.6921  169.7561 O.2     1  UNL1       -0.2498
     15 C         138.9445  140.2079  169.8945 C.3     1  UNL1        0.2556
     16 O         139.8086  139.8087  168.7352 O.3     1  UNL1       -0.4442
     17 C         142.7051  138.8700  166.7245 C.3     1  UNL1        0.0182
     18 C         143.8592  138.8291  165.7672 C.3     1  UNL1        0.0721
     19 N         143.7358  139.4686  164.4159 N.3     1  UNL1       -0.2727
     20 C         144.8811  140.2557  163.8514 C.3     1  UNL1        0.0724
     21 C         144.7577  140.8952  162.5001 C.3     1  UNL1        0.0218
     22 C         143.4891  140.7475  161.7135 C.3     1  UNL1        0.0281
     23 C         142.3438  139.9604  162.2781 C.3     1  UNL1        0.0218
     24 C         142.4672  139.3209  163.6293 C.3     1  UNL1        0.0724
     25 C         143.3657  141.3870  160.3622 C.ar    1  UNL1        0.0115
     26 C         143.0288  142.8443  160.2501 C.ar    1  UNL1       -0.0013
     27 C         142.9054  143.4838  158.8988 C.ar    1  UNL1       -0.0001
     28 C         143.1191  142.6659  157.6597 C.ar    1  UNL1        0.0031
     29 C         143.4560  141.2085  157.7719 C.ar    1  UNL1        0.0366
     30 C         143.5794  140.5691  159.1231 C.ar    1  UNL1        0.1347
     31 O         143.9163  139.1117  159.2353 O.3     1  UNL1       -0.4717
     32 C         142.8365  138.0796  159.0988 C.3     1  UNL1        0.2525
@<TRIPOS>BOND
     1    15    16    1
     2    16    13    1
     3    13    14    2
     4    13     2    1
     5     2     1    1
     6     1    17    1
     7    17    18    1
     8    18    19    1
     9    19    20    1
    10    20    21    1
    11    21    22    1
    12    22    25    1
    13    25    26   ar
    14    26    27   ar
    15    27    28   ar
    16    28    29   ar
    17    29    30   ar
    18    30    31    1
    19    31    32    1
    20    22    23    1
    21    23    24    1
    22     2     3    1
    23     3     4   ar
    24     4     5   ar
    25     5     6   ar
    26     6     7    1
    27     6     8   ar
    28     8     9   ar
    29     2    10    1
    30    10    11    1
    31    10    12    1
    32    24    19    1
    33     9     3   ar
    34    30    25   ar
@<TRIPOS>MOLECULE
*****
 32 34 0 0 0
SMALL
GASTEIGER

@<TRIPOS>ATOM
      1 C         144.0643  139.6205  161.1738 C.3     1  UNL1        0.0161
      2 C         142.8048  139.9336  160.4218 C.3     1  UNL1        0.1083
      3 C         141.9907  139.4028  161.5643 C.ar    1  UNL1       -0.0127
      4 C         141.9651  137.9298  161.8464 C.ar    1  UNL1       -0.0033
      5 C         141.1509  137.3990  162.9890 C.ar    1  UNL1        0.0064
      6 C         140.3624  138.3413  163.8494 C.ar    1  UNL1        0.0345
      7 BR        139.5482  137.8105  164.9920 Br      1  UNL1       -0.0490
      8 C         140.3880  139.8143  163.5674 C.ar    1  UNL1        0.0064
      9 C         141.2021  140.3451  162.4248 C.ar    1  UNL1       -0.0033
     10 C         141.5453  140.2467  159.6697 C.3     1  UNL1        0.0138
     11 C         141.0148  141.6496  159.6462 C.3     1  UNL1        0.0009
     12 C         140.8161  139.1569  158.9412 C.3     1  UNL1        0.0009
     13 C         143.6189  140.4644  159.2792 C.2     1  UNL1        0.3199
     14 O         144.0222  139.5527  158.1584 O.2     1  UNL1       -0.2498
     15 C         144.2104  142.6156  157.9478 C.3     1  UNL1        0.2556
     16 O         144.0297  141.9070  159.2574 O.3     1  UNL1       -0.4442
     17 C         144.6243  140.6159  162.1463 C.3     1  UNL1        0.0182
     18 C         145.0946  140.1625  163.4965 C.3     1  UNL1        0.0721
     19 N         144.1565  140.1929  164.6666 N.3     1  UNL1       -0.2727
     20 C         143.7929  138.9187  165.3696 C.3     1  UNL1        0.0724
     21 C         142.8549  138.9492  166.5397 C.3     1  UNL1        0.0218
     22 C         142.2805  140.2538  167.0068 C.3     1  UNL1        0.0281
     23 C         142.6442  141.5279  166.3038 C.3     1  UNL1        0.0218
     24 C         143.5822  141.4975  165.1337 C.3     1  UNL1        0.0724
     25 C         141.3425  140.2842  168.1770 C.ar    1  UNL1        0.0115
     26 C         139.8777  140.0361  167.9706 C.ar    1  UNL1       -0.0013
     27 C         138.9396  140.0665  169.1408 C.ar    1  UNL1       -0.0001
     28 C         139.4665  140.3450  170.5173 C.ar    1  UNL1        0.0031
     29 C         140.9314  140.5932  170.7236 C.ar    1  UNL1        0.0366
     30 C         141.8694  140.5628  169.5535 C.ar    1  UNL1        0.1347
     31 O         143.3343  140.8109  169.7599 O.3     1  UNL1       -0.4717
     32 C         143.8529  142.2161  169.8402 C.3     1  UNL1        0.2525
@<TRIPOS>BOND
     1    15    16    1
     2    16    13    1
     3    13    14    2
     4    13     2    1
     5     2     1    1
     6     1    17    1
     7    17    18    1
     8    18    19    1
     9    19    20    1
    10    20    21    1
    11    21    22    1
    12    22    25    1
    13    25    26   ar
    14    26    27   ar
    15    27    28   ar
    16    28    29   ar
    17    29    30   ar
    18    30    31    1
    19    31    32    1
    20    22    23    1
    21    23    24    1
    22     2     3    1
    23     3     4   ar
    24     4     5   ar
    25     5     6   ar
    26     6     7    1
    27     6     8   ar
    28     8     9   ar
    29     2    10    1
    30    10    11    1
    31    10    12    1
    32    24    19    1
    33     9     3   ar
    34    30    25   ar
@<TRIPOS>MOLECULE
*****
 32 34 0 0 0
SMALL
GASTEIGER

@<TRIPOS>ATOM
      1 C         144.3632  142.7629  161.6660 C.3     1  UNL1        0.0161
      2 C         143.6888  141.6374  160.9392 C.3     1  UNL1        0.1083
      3 C         143.6097  140.8586  162.2187 C.ar    1  UNL1       -0.0127
      4 C         142.2729  140.5042  162.7996 C.ar    1  UNL1       -0.0033
      5 C         142.1938  139.7253  164.0791 C.ar    1  UNL1        0.0064
      6 C         143.4515  139.3008  164.7777 C.ar    1  UNL1        0.0345
      7 BR        143.3724  138.5219  166.0572 Br      1  UNL1       -0.0490
      8 C         144.7883  139.6552  164.1968 C.ar    1  UNL1        0.0064
      9 C         144.8674  140.4340  162.9173 C.ar    1  UNL1       -0.0033
     10 C         143.0143  140.5119  160.2124 C.3     1  UNL1        0.0138
     11 C         141.6181  140.6850  159.6922 C.3     1  UNL1        0.0009
     12 C         143.7360  139.2133  160.0058 C.3     1  UNL1        0.0009
     13 C         143.7679  142.4163  159.6597 C.2     1  UNL1        0.3199
     14 O         142.7301  143.4534  159.3476 O.2     1  UNL1       -0.2498
     15 C         144.6468  142.2960  157.2178 C.3     1  UNL1        0.2556
     16 O         144.8848  142.1581  158.6923 O.3     1  UNL1       -0.4442
     17 C         143.5757  143.9744  162.0687 C.3     1  UNL1        0.0182
     18 C         143.6375  144.4736  163.4818 C.3     1  UNL1        0.0721
     19 N         142.8466  143.7865  164.5553 N.3     1  UNL1       -0.2727
     20 C         143.5511  142.9847  165.6092 C.3     1  UNL1        0.0724
     21 C         142.7601  142.2976  166.6826 C.3     1  UNL1        0.0218
     22 C         141.2647  142.4123  166.7021 C.3     1  UNL1        0.0281
     23 C         140.5601  143.2142  165.6482 C.3     1  UNL1        0.0218
     24 C         141.3511  143.9012  164.5748 C.3     1  UNL1        0.0724
     25 C         140.4737  141.7252  167.7756 C.ar    1  UNL1        0.0115
     26 C         140.4687  142.2743  169.1714 C.ar    1  UNL1       -0.0013
     27 C         139.6778  141.5872  170.2449 C.ar    1  UNL1       -0.0001
     28 C         138.8918  140.3510  169.9225 C.ar    1  UNL1        0.0031
     29 C         138.8968  139.8018  168.5266 C.ar    1  UNL1        0.0366
     30 C         139.6877  140.4890  167.4532 C.ar    1  UNL1        0.1347
     31 O         139.6928  139.9398  166.0572 O.3     1  UNL1       -0.4717
     32 C         138.4497  139.3206  165.4905 C.3     1  UNL1        0.2525
@<TRIPOS>BOND
     1    15    16    1
     2    16    13    1
     3    13    14    2
     4    13     2    1
     5     2     1    1
     6     1    17    1
     7    17    18    1
     8    18    19    1
     9    19    20    1
    10    20    21    1
    11    21    22    1
    12    22    25    1
    13    25    26   ar
    14    26    27   ar
    15    27    28   ar
    16    28    29   ar
    17    29    30   ar
    18    30    31    1
    19    31    32    1
    20    22    23    1
    21    23    24    1
    22     2     3    1
    23     3     4   ar
    24     4     5   ar
    25     5     6   ar
    26     6     7    1
    27     6     8   ar
    28     8     9   ar
    29     2    10    1
    30    10    11    1
    31    10    12    1
    32    24    19    1
    33     9     3   ar
    34    30    25   ar
@<TRIPOS>MOLECULE
*****
 32 34 0 0 0
SMALL
GASTEIGER

@<TRIPOS>ATOM
      1 C         140.5850  140.1317  167.4908 C.3     1  UNL1        0.0161
      2 C         140.9367  141.3253  168.3284 C.3     1  UNL1        0.1083
      3 C         141.4319  142.0379  167.1049 C.ar    1  UNL1       -0.0127
      4 C         142.8605  141.8844  166.6743 C.ar    1  UNL1       -0.0033
      5 C         143.3557  142.5971  165.4508 C.ar    1  UNL1        0.0064
      6 C         142.4224  143.4632  164.6580 C.ar    1  UNL1        0.0345
      7 BR        142.9176  144.1759  163.4344 Br      1  UNL1       -0.0490
      8 C         140.9937  143.6167  165.0886 C.ar    1  UNL1        0.0064
      9 C         140.4985  142.9041  166.3121 C.ar    1  UNL1       -0.0033
     10 C         141.2883  142.5189  169.1660 C.3     1  UNL1        0.0138
     11 C         142.6181  142.5849  169.8569 C.3     1  UNL1        0.0009
     12 C         140.3102  143.6467  169.3126 C.3     1  UNL1        0.0009
     13 C         140.4414  140.6127  169.5518 C.2     1  UNL1        0.3199
     14 O         139.3570  141.2242  170.3886 O.2     1  UNL1       -0.2498
     15 C         142.4987  139.1757  170.2250 C.3     1  UNL1        0.2556
     16 O         141.0306  139.2885  169.9386 O.3     1  UNL1       -0.4442
     17 C         139.1464  139.7910  167.2371 C.3     1  UNL1        0.0182
     18 C         138.7168  139.3118  165.8822 C.3     1  UNL1        0.0721
     19 N         138.9200  140.1841  164.6789 N.3     1  UNL1       -0.2727
     20 C         140.1549  140.0309  163.8413 C.3     1  UNL1        0.0724
     21 C         140.3580  140.9032  162.6381 C.3     1  UNL1        0.0218
     22 C         139.3262  141.9287  162.2725 C.3     1  UNL1        0.0281
     23 C         138.0913  142.0820  163.1100 C.3     1  UNL1        0.0218
     24 C         137.8882  141.2097  164.3132 C.3     1  UNL1        0.0724
     25 C         139.5294  142.8011  161.0692 C.ar    1  UNL1        0.0115
     26 C         140.1002  144.1789  161.2294 C.ar    1  UNL1       -0.0013
     27 C         140.3034  145.0512  160.0261 C.ar    1  UNL1       -0.0001
     28 C         139.9357  144.5456  158.6626 C.ar    1  UNL1        0.0031
     29 C         139.3648  143.1677  158.5024 C.ar    1  UNL1        0.0366
     30 C         139.1617  142.2955  159.7056 C.ar    1  UNL1        0.1347
     31 O         138.5908  140.9176  159.5454 O.3     1  UNL1       -0.4717
     32 C         138.7499  140.1864  158.2454 C.3     1  UNL1        0.2525
@<TRIPOS>BOND
     1    15    16    1
     2    16    13    1
     3    13    14    2
     4    13     2    1
     5     2     1    1
     6     1    17    1
     7    17    18    1
     8    18    19    1
     9    19    20    1
    10    20    21    1
    11    21    22    1
    12    22    25    1
    13    25    26   ar
    14    26    27   ar
    15    27    28   ar
    16    28    29   ar
    17    29    30   ar
    18    30    31    1
    19    31    32    1
    20    22    23    1
    21    23    24    1
    22     2     3    1
    23     3     4   ar
    24     4     5   ar
    25     5     6   ar
    26     6     7    1
    27     6     8   ar
    28     8     9   ar
    29     2    10    1
    30    10    11    1
    31    10    12    1
    32    24    19    1
    33     9     3   ar
    34    30    25   ar
