@<TRIPOS>MOLECULE
*****
 30 31 0 0 0
SMALL
GASTEIGER

@<TRIPOS>ATOM
      1 C         142.5607  140.0267  168.4095 C.ar    1  UNL1        0.0176
      2 C         142.7476  139.1621  167.1981 C.ar    1  UNL1        0.0020
      3 C         143.1270  139.7817  165.8858 C.ar    1  UNL1        0.0373
      4 C         143.3194  141.2658  165.7849 C.ar    1  UNL1        0.1477
      5 C         143.1325  142.1304  166.9962 C.ar    1  UNL1        0.0668
      6 C         142.7532  141.5109  168.3086 C.ar    1  UNL1        0.1401
      7 F         142.5663  142.3755  169.5200 F       1  UNL1       -0.2044
      8 C         142.1813  139.4072  169.7219 C.3     1  UNL1        0.0939
      9 C         144.4722  135.8622  171.2824 C.3     1  UNL1        0.0900
     10 C         143.7086  137.0439  170.7622 C.1     1  UNL1       -0.0897
     11 C         142.9449  138.2255  170.2420 C.1     1  UNL1       -0.0871
     12 C         141.0383  139.9692  170.5141 C.3     1  UNL1        0.0591
     13 C         139.7608  140.3455  169.8239 C.2     1  UNL1        0.0517
     14 O         138.9159  141.4603  170.3655 O.co2   1  UNL1       -0.5491
     15 O         139.3281  139.6068  168.5921 O.co2   1  UNL1       -0.5491
     16 O         143.6988  141.8854  164.4725 O.3     1  UNL1       -0.4504
     17 C         142.7822  142.8759  163.8179 C.ar    1  UNL1        0.1791
     18 C         143.0466  144.3462  163.9539 C.ar    1  UNL1        0.0406
     19 C         142.1300  145.3368  163.2993 C.ar    1  UNL1        0.0072
     20 C         140.9489  144.8571  162.5087 C.ar    1  UNL1        0.0746
     21 C         140.6845  143.3869  162.3727 C.ar    1  UNL1        0.0441
     22 C         141.6011  142.3963  163.0274 C.ar    1  UNL1        0.1785
     23 C         140.0322  145.8478  161.8541 C.3     1  UNL1        0.4187
     24 F         139.1156  146.8383  161.1996 F       1  UNL1       -0.1659
     25 F         140.9523  145.9177  160.6715 F       1  UNL1       -0.1659
     26 F         139.1122  145.7778  163.0367 F       1  UNL1       -0.1659
     27 O         141.3367  140.9261  162.8914 O.3     1  UNL1       -0.4205
     28 C         140.1738  140.3039  163.6060 C.3     1  UNL1        0.5087
     29 F         140.3209  138.9552  164.2455 F       1  UNL1       -0.1550
     30 F         138.8637  141.0306  163.6810 F       1  UNL1       -0.1550
@<TRIPOS>UNITY_ATOM_ATTR
14 1
charge -1
@<TRIPOS>BOND
     1     9    10    1
     2    10    11    3
     3    11     8    1
     4     8    12    1
     5    12    13    1
     6    13    14   ar
     7    13    15   ar
     8     8     1    1
     9     1     2   ar
    10     2     3   ar
    11     3     4   ar
    12     4    16    1
    13    16    17    1
    14    17    18   ar
    15    18    19   ar
    16    19    20   ar
    17    20    23    1
    18    23    24    1
    19    23    25    1
    20    23    26    1
    21    20    21   ar
    22    21    22   ar
    23    22    27    1
    24    27    28    1
    25    28    29    1
    26    28    30    1
    27     4     5   ar
    28     5     6   ar
    29     6     7    1
    30     6     1   ar
    31    22    17   ar
@<TRIPOS>MOLECULE
*****
 30 31 0 0 0
SMALL
GASTEIGER

@<TRIPOS>ATOM
      1 C         140.5692  140.2102  168.2160 C.ar    1  UNL1        0.0176
      2 C         141.9949  139.8634  168.5274 C.ar    1  UNL1        0.0020
      3 C         142.8408  139.1734  167.4987 C.ar    1  UNL1        0.0373
      4 C         142.2610  138.8301  166.1586 C.ar    1  UNL1        0.1477
      5 C         140.8353  139.1769  165.8472 C.ar    1  UNL1        0.0668
      6 C         139.9894  139.8669  166.8759 C.ar    1  UNL1        0.1401
      7 F         138.5636  140.2137  166.5644 F       1  UNL1       -0.2044
      8 C         139.7232  140.9003  169.2447 C.3     1  UNL1        0.0939
      9 C         136.2924  138.7155  171.1698 C.3     1  UNL1        0.0900
     10 C         137.4360  139.4437  170.5281 C.1     1  UNL1       -0.0897
     11 C         138.5796  140.1720  169.8864 C.1     1  UNL1       -0.0871
     12 C         140.0209  142.3185  169.6317 C.3     1  UNL1        0.0591
     13 C         139.8893  142.7489  171.0626 C.2     1  UNL1        0.0517
     14 O         138.8897  143.8015  171.4403 O.co2   1  UNL1       -0.5491
     15 O         140.7575  142.1267  172.1158 O.co2   1  UNL1       -0.5491
     16 O         143.1070  138.1400  165.1299 O.3     1  UNL1       -0.4504
     17 C         143.2989  138.7606  163.7779 C.ar    1  UNL1        0.1791
     18 C         144.3777  139.7814  163.5675 C.ar    1  UNL1        0.0406
     19 C         144.5696  140.4020  162.2154 C.ar    1  UNL1        0.0072
     20 C         143.6829  140.0017  161.0737 C.ar    1  UNL1        0.0746
     21 C         142.6041  138.9809  161.2841 C.ar    1  UNL1        0.0441
     22 C         142.4121  138.3603  162.6362 C.ar    1  UNL1        0.1785
     23 C         143.8748  140.6223  159.7217 C.3     1  UNL1        0.4187
     24 F         144.0668  141.2428  158.3696 F       1  UNL1       -0.1659
     25 F         144.3060  141.9038  160.3710 F       1  UNL1       -0.1659
     26 F         143.4437  139.3408  159.0723 F       1  UNL1       -0.1659
     27 O         141.3334  137.3395  162.8465 O.3     1  UNL1       -0.4205
     28 C         139.9112  137.6693  162.5020 C.3     1  UNL1        0.5087
     29 F         138.9210  137.9500  163.5931 F       1  UNL1       -0.1550
     30 F         139.4793  137.7184  161.0664 F       1  UNL1       -0.1550
@<TRIPOS>UNITY_ATOM_ATTR
14 1
charge -1
@<TRIPOS>BOND
     1     9    10    1
     2    10    11    3
     3    11     8    1
     4     8    12    1
     5    12    13    1
     6    13    14   ar
     7    13    15   ar
     8     8     1    1
     9     1     2   ar
    10     2     3   ar
    11     3     4   ar
    12     4    16    1
    13    16    17    1
    14    17    18   ar
    15    18    19   ar
    16    19    20   ar
    17    20    23    1
    18    23    24    1
    19    23    25    1
    20    23    26    1
    21    20    21   ar
    22    21    22   ar
    23    22    27    1
    24    27    28    1
    25    28    29    1
    26    28    30    1
    27     4     5   ar
    28     5     6   ar
    29     6     7    1
    30     6     1   ar
    31    22    17   ar
@<TRIPOS>MOLECULE
*****
 30 31 0 0 0
SMALL
GASTEIGER

@<TRIPOS>ATOM
      1 C         141.3777  139.7821  168.4310 C.ar    1  UNL1        0.0176
      2 C         139.9554  139.9217  168.8865 C.ar    1  UNL1        0.0020
      3 C         138.8373  139.8417  167.8897 C.ar    1  UNL1        0.0373
      4 C         139.1416  139.6220  166.4375 C.ar    1  UNL1        0.1477
      5 C         140.5639  139.4824  165.9820 C.ar    1  UNL1        0.0668
      6 C         141.6819  139.5624  166.9788 C.ar    1  UNL1        0.1401
      7 F         143.1043  139.4228  166.5232 F       1  UNL1       -0.2044
      8 C         142.4957  139.8621  169.4278 C.3     1  UNL1        0.0939
      9 C         144.1805  136.0970  171.2264 C.3     1  UNL1        0.0900
     10 C         143.6189  137.3520  170.6269 C.1     1  UNL1       -0.0897
     11 C         143.0573  138.6071  170.0273 C.1     1  UNL1       -0.0871
     12 C         143.0522  141.1972  169.8251 C.3     1  UNL1        0.0591
     13 C         142.2826  142.0824  170.7601 C.2     1  UNL1        0.0517
     14 O         142.4289  143.5727  170.6727 O.co2   1  UNL1       -0.5491
     15 O         141.3668  141.4773  171.7824 O.co2   1  UNL1       -0.5491
     16 O         138.0235  139.5420  165.4407 O.3     1  UNL1       -0.4504
     17 C         138.1422  140.2475  164.1223 C.ar    1  UNL1        0.1791
     18 C         137.8493  141.7157  164.0284 C.ar    1  UNL1        0.0406
     19 C         137.9679  142.4212  162.7100 C.ar    1  UNL1        0.0072
     20 C         138.3794  141.6587  161.4856 C.ar    1  UNL1        0.0746
     21 C         138.6723  140.1906  161.5795 C.ar    1  UNL1        0.0441
     22 C         138.5536  139.4850  162.8979 C.ar    1  UNL1        0.1785
     23 C         138.4980  142.3643  160.1672 C.3     1  UNL1        0.4187
     24 F         138.6167  143.0699  158.8489 F       1  UNL1       -0.1659
     25 F         137.9411  141.1579  159.4713 F       1  UNL1       -0.1659
     26 F         139.0550  143.5707  160.8631 F       1  UNL1       -0.1659
     27 O         138.8465  138.0169  162.9919 O.3     1  UNL1       -0.4205
     28 C         140.2560  137.5228  162.8531 C.3     1  UNL1        0.5087
     29 F         140.9203  136.8190  163.9991 F       1  UNL1       -0.1550
     30 F         141.0012  137.7327  161.5684 F       1  UNL1       -0.1550
@<TRIPOS>UNITY_ATOM_ATTR
14 1
charge -1
@<TRIPOS>BOND
     1     9    10    1
     2    10    11    3
     3    11     8    1
     4     8    12    1
     5    12    13    1
     6    13    14   ar
     7    13    15   ar
     8     8     1    1
     9     1     2   ar
    10     2     3   ar
    11     3     4   ar
    12     4    16    1
    13    16    17    1
    14    17    18   ar
    15    18    19   ar
    16    19    20   ar
    17    20    23    1
    18    23    24    1
    19    23    25    1
    20    23    26    1
    21    20    21   ar
    22    21    22   ar
    23    22    27    1
    24    27    28    1
    25    28    29    1
    26    28    30    1
    27     4     5   ar
    28     5     6   ar
    29     6     7    1
    30     6     1   ar
    31    22    17   ar
@<TRIPOS>MOLECULE
*****
 30 31 0 0 0
SMALL
GASTEIGER

@<TRIPOS>ATOM
      1 C         140.6263  140.2823  168.1787 C.ar    1  UNL1        0.0176
      2 C         142.0436  139.9173  168.5072 C.ar    1  UNL1        0.0020
      3 C         142.8946  139.2212  167.4868 C.ar    1  UNL1        0.0373
      4 C         142.3283  138.8900  166.1379 C.ar    1  UNL1        0.1477
      5 C         140.9110  139.2549  165.8094 C.ar    1  UNL1        0.0668
      6 C         140.0600  139.9510  166.8298 C.ar    1  UNL1        0.1401
      7 F         138.6426  140.3160  166.5012 F       1  UNL1       -0.2044
      8 C         139.7753  140.9784  169.1990 C.3     1  UNL1        0.0939
      9 C         136.3510  138.7966  171.1393 C.3     1  UNL1        0.0900
     10 C         137.4924  139.5238  170.4925 C.1     1  UNL1       -0.0897
     11 C         138.6339  140.2512  169.8458 C.1     1  UNL1       -0.0871
     12 C         140.0656  142.4018  169.5727 C.3     1  UNL1        0.0591
     13 C         140.9498  142.7037  170.7462 C.2     1  UNL1        0.0517
     14 O         140.6322  142.1249  172.0931 O.co2   1  UNL1       -0.5491
     15 O         142.1515  143.5846  170.5728 O.co2   1  UNL1       -0.5491
     16 O         143.1793  138.1939  165.1176 O.3     1  UNL1       -0.4504
     17 C         143.2963  138.7534  163.7308 C.ar    1  UNL1        0.1791
     18 C         142.6512  138.0425  162.5782 C.ar    1  UNL1        0.0406
     19 C         142.7681  138.6020  161.1915 C.ar    1  UNL1        0.0072
     20 C         143.5302  139.8726  160.9572 C.ar    1  UNL1        0.0746
     21 C         144.1753  140.5836  162.1097 C.ar    1  UNL1        0.0441
     22 C         144.0584  140.0240  163.4965 C.ar    1  UNL1        0.1785
     23 C         143.6471  140.4322  159.5703 C.3     1  UNL1        0.4187
     24 F         143.7641  140.9918  158.1836 F       1  UNL1       -0.1659
     25 F         143.2748  139.0959  158.9997 F       1  UNL1       -0.1659
     26 F         144.0195  141.7685  160.1410 F       1  UNL1       -0.1659
     27 O         144.7035  140.7350  164.6490 O.3     1  UNL1       -0.4205
     28 C         144.1435  142.0394  165.1339 C.3     1  UNL1        0.5087
     29 F         142.7250  142.1137  165.6158 F       1  UNL1       -0.1550
     30 F         145.0021  143.2693  165.1370 F       1  UNL1       -0.1550
@<TRIPOS>UNITY_ATOM_ATTR
14 1
charge -1
@<TRIPOS>BOND
     1     9    10    1
     2    10    11    3
     3    11     8    1
     4     8    12    1
     5    12    13    1
     6    13    14   ar
     7    13    15   ar
     8     8     1    1
     9     1     2   ar
    10     2     3   ar
    11     3     4   ar
    12     4    16    1
    13    16    17    1
    14    17    18   ar
    15    18    19   ar
    16    19    20   ar
    17    20    23    1
    18    23    24    1
    19    23    25    1
    20    23    26    1
    21    20    21   ar
    22    21    22   ar
    23    22    27    1
    24    27    28    1
    25    28    29    1
    26    28    30    1
    27     4     5   ar
    28     5     6   ar
    29     6     7    1
    30     6     1   ar
    31    22    17   ar
@<TRIPOS>MOLECULE
*****
 30 31 0 0 0
SMALL
GASTEIGER

@<TRIPOS>ATOM
      1 C         141.9996  139.5500  168.3456 C.ar    1  UNL1        0.0176
      2 C         143.0544  139.2344  167.3269 C.ar    1  UNL1        0.0020
      3 C         142.7653  139.4177  165.8665 C.ar    1  UNL1        0.0373
      4 C         141.4215  139.9166  165.4247 C.ar    1  UNL1        0.1477
      5 C         140.3667  140.2321  166.4434 C.ar    1  UNL1        0.0668
      6 C         140.6558  140.0488  167.9038 C.ar    1  UNL1        0.1401
      7 F         139.6009  140.3644  168.9226 F       1  UNL1       -0.2044
      8 C         142.2887  139.3667  169.8060 C.3     1  UNL1        0.0939
      9 C         144.5520  135.7412  171.2141 C.3     1  UNL1        0.0900
     10 C         143.7976  136.9497  170.7447 C.1     1  UNL1       -0.0897
     11 C         143.0431  138.1582  170.2753 C.1     1  UNL1       -0.0871
     12 C         141.8233  140.3919  170.7971 C.3     1  UNL1        0.0591
     13 C         142.2149  141.8300  170.6285 C.2     1  UNL1        0.0517
     14 O         141.2649  142.9183  171.0323 O.co2   1  UNL1       -0.5491
     15 O         143.5566  142.1798  170.0561 O.co2   1  UNL1       -0.5491
     16 O         141.1324  140.0999  163.9643 O.3     1  UNL1       -0.4504
     17 C         140.7619  141.4545  163.4373 C.ar    1  UNL1        0.1791
     18 C         139.3519  141.7320  163.0073 C.ar    1  UNL1        0.0406
     19 C         138.9814  143.0866  162.4803 C.ar    1  UNL1        0.0072
     20 C         140.0209  144.1637  162.3833 C.ar    1  UNL1        0.0746
     21 C         141.4308  143.8862  162.8133 C.ar    1  UNL1        0.0441
     22 C         141.8014  142.5315  163.3403 C.ar    1  UNL1        0.1785
     23 C         139.6503  145.5184  161.8563 C.3     1  UNL1        0.4187
     24 F         139.2797  146.8729  161.3293 F       1  UNL1       -0.1659
     25 F         140.9593  145.5931  161.1278 F       1  UNL1       -0.1659
     26 F         138.3412  145.4436  162.5848 F       1  UNL1       -0.1659
     27 O         143.2114  142.2540  163.7703 O.3     1  UNL1       -0.4205
     28 C         143.7106  142.7745  165.0855 C.3     1  UNL1        0.5087
     29 F         142.8113  142.7651  166.2860 F       1  UNL1       -0.1550
     30 F         145.1091  143.3044  165.2003 F       1  UNL1       -0.1550
@<TRIPOS>UNITY_ATOM_ATTR
14 1
charge -1
@<TRIPOS>BOND
     1     9    10    1
     2    10    11    3
     3    11     8    1
     4     8    12    1
     5    12    13    1
     6    13    14   ar
     7    13    15   ar
     8     8     1    1
     9     1     2   ar
    10     2     3   ar
    11     3     4   ar
    12     4    16    1
    13    16    17    1
    14    17    18   ar
    15    18    19   ar
    16    19    20   ar
    17    20    23    1
    18    23    24    1
    19    23    25    1
    20    23    26    1
    21    20    21   ar
    22    21    22   ar
    23    22    27    1
    24    27    28    1
    25    28    29    1
    26    28    30    1
    27     4     5   ar
    28     5     6   ar
    29     6     7    1
    30     6     1   ar
    31    22    17   ar
@<TRIPOS>MOLECULE
*****
 30 31 0 0 0
SMALL
GASTEIGER

@<TRIPOS>ATOM
      1 C         139.6696  140.6431  167.5431 C.ar    1  UNL1        0.0176
      2 C         138.8438  139.5423  166.9464 C.ar    1  UNL1        0.0020
      3 C         138.4726  139.5862  165.4937 C.ar    1  UNL1        0.0373
      4 C         138.9272  140.7310  164.6378 C.ar    1  UNL1        0.1477
      5 C         139.7531  141.8318  165.2345 C.ar    1  UNL1        0.0668
      6 C         140.1243  141.7879  166.6872 C.ar    1  UNL1        0.1401
      7 F         140.9502  142.8888  167.2839 F       1  UNL1       -0.2044
      8 C         140.0408  140.5992  168.9958 C.3     1  UNL1        0.0939
      9 C         143.3595  137.8984  170.3895 C.3     1  UNL1        0.0900
     10 C         142.2533  138.7987  169.9249 C.1     1  UNL1       -0.0897
     11 C         141.1470  139.6989  169.4603 C.1     1  UNL1       -0.0871
     12 C         139.3058  141.4555  169.9840 C.3     1  UNL1        0.0591
     13 C         140.0395  142.5179  170.7475 C.2     1  UNL1        0.0517
     14 O         140.7385  142.1731  172.0291 O.co2   1  UNL1       -0.5491
     15 O         140.0742  143.9252  170.2294 O.co2   1  UNL1       -0.5491
     16 O         138.5560  140.7749  163.1851 O.3     1  UNL1       -0.4504
     17 C         139.5072  141.3631  162.1854 C.ar    1  UNL1        0.1791
     18 C         140.7096  140.5821  161.7446 C.ar    1  UNL1        0.0406
     19 C         141.6607  141.1702  160.7449 C.ar    1  UNL1        0.0072
     20 C         141.4095  142.5393  160.1860 C.ar    1  UNL1        0.0746
     21 C         140.2071  143.3203  160.6268 C.ar    1  UNL1        0.0441
     22 C         139.2559  142.7322  161.6265 C.ar    1  UNL1        0.1785
     23 C         142.3607  143.1274  159.1863 C.3     1  UNL1        0.4187
     24 F         143.3119  143.7156  158.1866 F       1  UNL1       -0.1659
     25 F         142.6579  141.7542  158.6611 F       1  UNL1       -0.1659
     26 F         142.0635  144.5007  159.7114 F       1  UNL1       -0.1659
     27 O         138.0536  143.5132  162.0673 O.3     1  UNL1       -0.4205
     28 C         138.1528  144.4457  163.2380 C.3     1  UNL1        0.5087
     29 F         137.2564  144.2566  164.4256 F       1  UNL1       -0.1550
     30 F         139.1485  145.5674  163.2210 F       1  UNL1       -0.1550
@<TRIPOS>UNITY_ATOM_ATTR
14 1
charge -1
@<TRIPOS>BOND
     1     9    10    1
     2    10    11    3
     3    11     8    1
     4     8    12    1
     5    12    13    1
     6    13    14   ar
     7    13    15   ar
     8     8     1    1
     9     1     2   ar
    10     2     3   ar
    11     3     4   ar
    12     4    16    1
    13    16    17    1
    14    17    18   ar
    15    18    19   ar
    16    19    20   ar
    17    20    23    1
    18    23    24    1
    19    23    25    1
    20    23    26    1
    21    20    21   ar
    22    21    22   ar
    23    22    27    1
    24    27    28    1
    25    28    29    1
    26    28    30    1
    27     4     5   ar
    28     5     6   ar
    29     6     7    1
    30     6     1   ar
    31    22    17   ar
@<TRIPOS>MOLECULE
*****
 30 31 0 0 0
SMALL
GASTEIGER

@<TRIPOS>ATOM
      1 C         142.4611  140.5353  167.8167 C.ar    1  UNL1        0.0176
      2 C         142.8457  141.9775  167.9655 C.ar    1  UNL1        0.0020
      3 C         143.4690  142.7101  166.8144 C.ar    1  UNL1        0.0373
      4 C         143.7076  142.0005  165.5146 C.ar    1  UNL1        0.1477
      5 C         143.3230  140.5583  165.3659 C.ar    1  UNL1        0.0668
      6 C         142.6997  139.8257  166.5169 C.ar    1  UNL1        0.1401
      7 F         142.3151  138.3835  166.3681 F       1  UNL1       -0.2044
      8 C         141.8378  139.8027  168.9677 C.3     1  UNL1        0.0939
      9 C         144.1314  136.5545  171.0745 C.3     1  UNL1        0.0900
     10 C         143.3669  137.6372  170.3722 C.1     1  UNL1       -0.0897
     11 C         142.6023  138.7200  169.6700 C.1     1  UNL1       -0.0871
     12 C         140.4501  140.1529  169.4165 C.3     1  UNL1        0.0591
     13 C         140.1114  140.1507  170.8778 C.2     1  UNL1        0.0517
     14 O         140.7304  141.1654  171.7927 O.co2   1  UNL1       -0.5491
     15 O         139.1537  139.1336  171.4242 O.co2   1  UNL1       -0.5491
     16 O         144.3309  142.7330  164.3636 O.3     1  UNL1       -0.4504
     17 C         143.4612  143.3665  163.3185 C.ar    1  UNL1        0.1791
     18 C         142.4798  144.4331  163.7051 C.ar    1  UNL1        0.0406
     19 C         141.6101  145.0665  162.6600 C.ar    1  UNL1        0.0072
     20 C         141.7217  144.6335  161.2282 C.ar    1  UNL1        0.0746
     21 C         142.7030  143.5670  160.8416 C.ar    1  UNL1        0.0441
     22 C         143.5728  142.9335  161.8867 C.ar    1  UNL1        0.1785
     23 C         140.8520  145.2670  160.1831 C.3     1  UNL1        0.4187
     24 F         139.9823  145.9005  159.1380 F       1  UNL1       -0.1659
     25 F         141.8485  144.8922  159.1265 F       1  UNL1       -0.1659
     26 F         139.8555  145.6419  161.2396 F       1  UNL1       -0.1659
     27 O         144.5541  141.8670  161.5000 O.3     1  UNL1       -0.4205
     28 C         144.1235  140.4307  161.4594 C.3     1  UNL1        0.5087
     29 F         144.6162  139.4703  162.5010 F       1  UNL1       -0.1550
     30 F         143.2003  139.9548  160.3773 F       1  UNL1       -0.1550
@<TRIPOS>UNITY_ATOM_ATTR
14 1
charge -1
@<TRIPOS>BOND
     1     9    10    1
     2    10    11    3
     3    11     8    1
     4     8    12    1
     5    12    13    1
     6    13    14   ar
     7    13    15   ar
     8     8     1    1
     9     1     2   ar
    10     2     3   ar
    11     3     4   ar
    12     4    16    1
    13    16    17    1
    14    17    18   ar
    15    18    19   ar
    16    19    20   ar
    17    20    23    1
    18    23    24    1
    19    23    25    1
    20    23    26    1
    21    20    21   ar
    22    21    22   ar
    23    22    27    1
    24    27    28    1
    25    28    29    1
    26    28    30    1
    27     4     5   ar
    28     5     6   ar
    29     6     7    1
    30     6     1   ar
    31    22    17   ar
@<TRIPOS>MOLECULE
*****
 30 31 0 0 0
SMALL
GASTEIGER

@<TRIPOS>ATOM
      1 C         140.5880  140.2159  167.9950 C.ar    1  UNL1        0.0176
      2 C         139.8227  139.8395  166.7611 C.ar    1  UNL1        0.0020
      3 C         140.5211  139.1508  165.6262 C.ar    1  UNL1        0.0373
      4 C         141.9848  138.8385  165.7253 C.ar    1  UNL1        0.1477
      5 C         142.7501  139.2148  166.9592 C.ar    1  UNL1        0.0668
      6 C         142.0517  139.9035  168.0940 C.ar    1  UNL1        0.1401
      7 F         142.8171  140.2799  169.3280 F       1  UNL1       -0.2044
      8 C         139.8896  140.9046  169.1298 C.3     1  UNL1        0.0939
      9 C         136.4157  138.9077  171.1779 C.3     1  UNL1        0.0900
     10 C         137.5736  139.5733  170.4952 C.1     1  UNL1       -0.0897
     11 C         138.7317  140.2390  169.8125 C.1     1  UNL1       -0.0871
     12 C         140.3491  142.2589  169.5820 C.3     1  UNL1        0.0591
     13 C         140.0065  142.7462  170.9587 C.2     1  UNL1        0.0517
     14 O         140.5960  142.0712  172.1615 O.co2   1  UNL1       -0.5491
     15 O         139.0744  143.9085  171.1325 O.co2   1  UNL1       -0.5491
     16 O         142.6832  138.1497  164.5904 O.3     1  UNL1       -0.4504
     17 C         142.4374  138.5931  163.1787 C.ar    1  UNL1        0.1791
     18 C         141.6749  137.7090  162.2369 C.ar    1  UNL1        0.0406
     19 C         141.4290  138.1524  160.8252 C.ar    1  UNL1        0.0072
     20 C         141.9456  139.4799  160.3552 C.ar    1  UNL1        0.0746
     21 C         142.7081  140.3640  161.2970 C.ar    1  UNL1        0.0441
     22 C         142.9540  139.9206  162.7088 C.ar    1  UNL1        0.1785
     23 C         141.6997  139.9233  158.9435 C.3     1  UNL1        0.4187
     24 F         141.4539  140.3667  157.5318 F       1  UNL1       -0.1659
     25 F         141.8556  138.5080  158.4718 F       1  UNL1       -0.1659
     26 F         141.5439  141.3386  159.4151 F       1  UNL1       -0.1659
     27 O         143.7164  140.8048  163.6505 O.3     1  UNL1       -0.4205
     28 C         145.1581  140.5170  163.9480 C.3     1  UNL1        0.5087
     29 F         145.5452  139.2245  164.6035 F       1  UNL1       -0.1550
     30 F         146.2128  141.5217  163.5901 F       1  UNL1       -0.1550
@<TRIPOS>UNITY_ATOM_ATTR
14 1
charge -1
@<TRIPOS>BOND
     1     9    10    1
     2    10    11    3
     3    11     8    1
     4     8    12    1
     5    12    13    1
     6    13    14   ar
     7    13    15   ar
     8     8     1    1
     9     1     2   ar
    10     2     3   ar
    11     3     4   ar
    12     4    16    1
    13    16    17    1
    14    17    18   ar
    15    18    19   ar
    16    19    20   ar
    17    20    23    1
    18    23    24    1
    19    23    25    1
    20    23    26    1
    21    20    21   ar
    22    21    22   ar
    23    22    27    1
    24    27    28    1
    25    28    29    1
    26    28    30    1
    27     4     5   ar
    28     5     6   ar
    29     6     7    1
    30     6     1   ar
    31    22    17   ar
@<TRIPOS>MOLECULE
*****
 30 31 0 0 0
SMALL
GASTEIGER

@<TRIPOS>ATOM
      1 C         141.8416  139.6404  168.5917 C.ar    1  UNL1        0.0176
      2 C         142.6908  139.4148  167.3760 C.ar    1  UNL1        0.0020
      3 C         142.0844  139.5184  166.0079 C.ar    1  UNL1        0.0373
      4 C         140.6290  139.8476  165.8556 C.ar    1  UNL1        0.1477
      5 C         139.7799  140.0732  167.0713 C.ar    1  UNL1        0.0668
      6 C         140.3862  139.9696  168.4394 C.ar    1  UNL1        0.1401
      7 F         139.5370  140.1952  169.6552 F       1  UNL1       -0.2044
      8 C         142.4480  139.5368  169.9598 C.3     1  UNL1        0.0939
      9 C         144.4827  135.7318  171.2370 C.3     1  UNL1        0.0900
     10 C         143.8045  137.0001  170.8113 C.1     1  UNL1       -0.0897
     11 C         143.1262  138.2685  170.3855 C.1     1  UNL1       -0.0871
     12 C         142.3761  140.7016  170.9022 C.3     1  UNL1        0.0591
     13 C         142.5602  142.0974  170.3848 C.2     1  UNL1        0.0517
     14 O         141.5129  143.1387  170.6469 O.co2   1  UNL1       -0.5491
     15 O         143.7919  142.4520  169.6054 O.co2   1  UNL1       -0.5491
     16 O         140.0226  139.9512  164.4875 O.3     1  UNL1       -0.4504
     17 C         139.9092  141.2880  163.8167 C.ar    1  UNL1        0.1791
     18 C         141.0081  142.2980  163.9666 C.ar    1  UNL1        0.0406
     19 C         140.8947  143.6348  163.2957 C.ar    1  UNL1        0.0072
     20 C         139.6824  143.9617  162.4750 C.ar    1  UNL1        0.0746
     21 C         138.5836  142.9517  162.3251 C.ar    1  UNL1        0.0441
     22 C         138.6970  141.6148  162.9959 C.ar    1  UNL1        0.1785
     23 C         139.5690  145.2985  161.8041 C.3     1  UNL1        0.4187
     24 F         139.4557  146.6353  161.1333 F       1  UNL1       -0.1659
     25 F         138.2778  145.5506  162.5247 F       1  UNL1       -0.1659
     26 F         140.8602  145.0464  161.0836 F       1  UNL1       -0.1659
     27 O         137.5982  140.6049  162.8460 O.3     1  UNL1       -0.4205
     28 C         137.7355  139.4890  161.8531 C.3     1  UNL1        0.5087
     29 F         138.6116  138.3119  162.1641 F       1  UNL1       -0.1550
     30 F         136.9966  139.5501  160.5491 F       1  UNL1       -0.1550
@<TRIPOS>UNITY_ATOM_ATTR
14 1
charge -1
@<TRIPOS>BOND
     1     9    10    1
     2    10    11    3
     3    11     8    1
     4     8    12    1
     5    12    13    1
     6    13    14   ar
     7    13    15   ar
     8     8     1    1
     9     1     2   ar
    10     2     3   ar
    11     3     4   ar
    12     4    16    1
    13    16    17    1
    14    17    18   ar
    15    18    19   ar
    16    19    20   ar
    17    20    23    1
    18    23    24    1
    19    23    25    1
    20    23    26    1
    21    20    21   ar
    22    21    22   ar
    23    22    27    1
    24    27    28    1
    25    28    29    1
    26    28    30    1
    27     4     5   ar
    28     5     6   ar
    29     6     7    1
    30     6     1   ar
    31    22    17   ar
