@<TRIPOS>MOLECULE
*****
 28 32 0 0 0
SMALL
GASTEIGER

@<TRIPOS>ATOM
      1 C         142.8963  143.1843  170.5648 C.3     1  UNL1        0.0175
      2 C         142.3970  142.3838  169.3987 C.3     1  UNL1        0.0592
      3 C         143.1831  142.3482  168.1217 C.3     1  UNL1        0.0434
      4 C         142.6837  141.5477  166.9556 C.2     1  UNL1       -0.0040
      5 C         141.3981  140.7828  167.0664 C.2     1  UNL1        0.0798
      6 N         141.1584  140.0873  165.7592 N.2     1  UNL1       -0.2519
      7 C         142.2957  140.4224  164.8404 C.2     1  UNL1        0.0638
      8 C         142.5947  140.0223  163.4260 C.3     1  UNL1        0.0859
      9 C         143.8365  140.5248  162.7510 C.2     1  UNL1        0.0687
     10 CL        144.1355  140.1247  161.3367 Cl      1  UNL1       -0.0842
     11 C         144.7792  141.4273  163.4904 C.2     1  UNL1        0.1470
     12 F         146.0210  141.9298  162.8154 F       1  UNL1       -0.2036
     13 C         144.4802  141.8274  164.9048 C.2     1  UNL1        0.0311
     14 C         143.2384  141.3250  165.5798 C.2     1  UNL1        0.0134
     15 C         140.6120  140.8184  168.3434 C.3     1  UNL1        0.1673
     16 N         141.1114  141.6189  169.5095 N.3     1  UNL1       -0.2858
     17 C         139.7225  140.7593  169.5497 C.2     1  UNL1        0.2481
     18 O         139.9623  141.4547  170.8569 O.2     1  UNL1       -0.2726
     19 N         138.5510  139.8827  169.2193 N.am    1  UNL1       -0.2825
     20 C         138.7166  139.3999  167.8087 C.ar    1  UNL1        0.0484
     21 C         137.8720  138.5085  166.9473 C.ar    1  UNL1        0.0153
     22 C         138.3012  138.1954  165.5446 C.ar    1  UNL1        0.0126
     23 C         139.5750  138.7737  165.0033 C.ar    1  UNL1        0.0575
     24 CL        140.0042  138.4606  163.6005 Cl      1  UNL1       -0.0823
     25 C         140.4196  139.6651  165.8647 C.ar    1  UNL1        0.0104
     26 C         139.9903  139.9782  167.2674 C.ar    1  UNL1        0.0184
     27 H         141.2219  140.9684  170.2874 H       1  UNL1        0.1242
     28 H         137.8045  139.6627  169.8223 H       1  UNL1        0.1549
@<TRIPOS>BOND
     1     2     1    1
     2     2     3    1
     3     3     4    1
     4     4     5    2
     5     5     6    1
     6     6     7    2
     7     7     8    1
     8     8     9    1
     9     9    10    1
    10     9    11    2
    11    11    12    1
    12    11    13    1
    13    13    14    2
    14     5    15    1
    15    15    16    1
    16    15    17    1
    17    17    18    2
    18    17    19   am
    19    19    20    1
    20    20    21   ar
    21    21    22   ar
    22    22    23   ar
    23    23    24    1
    24    23    25   ar
    25    25    26   ar
    26    16     2    1
    27    26    20   ar
    28    14     4    1
    29    26    15    1
    30    14     7    1
    31    16    27    1
    32    19    28    1
@<TRIPOS>MOLECULE
*****
 28 32 0 0 0
SMALL
GASTEIGER

@<TRIPOS>ATOM
      1 C         139.6022  145.9585  162.0885 C.3     1  UNL1        0.0175
      2 C         139.5089  144.5616  162.6268 C.3     1  UNL1        0.0592
      3 C         139.8075  144.2932  164.0721 C.3     1  UNL1        0.0434
      4 C         139.7141  142.8962  164.6103 C.2     1  UNL1       -0.0040
      5 C         139.3222  141.7676  163.7033 C.2     1  UNL1        0.0798
      6 N         139.3137  140.5044  164.5122 N.2     1  UNL1       -0.2519
      7 C         139.7005  140.8523  165.9191 C.2     1  UNL1        0.0638
      8 C         139.8593  140.0141  167.1529 C.3     1  UNL1        0.0859
      9 C         140.2655  140.6540  168.4473 C.2     1  UNL1        0.0687
     10 CL        140.4243  139.8158  169.6810 Cl      1  UNL1       -0.0842
     11 C         140.5130  142.1322  168.5079 C.2     1  UNL1        0.1470
     12 F         140.9192  142.7722  169.8023 F       1  UNL1       -0.2036
     13 C         140.3542  142.9705  167.2742 C.2     1  UNL1        0.0311
     14 C         139.9479  142.3305  165.9798 C.2     1  UNL1        0.0134
     15 C         139.0236  142.0360  162.2581 C.3     1  UNL1        0.1673
     16 N         139.1170  143.4329  161.7198 N.3     1  UNL1       -0.2858
     17 C         138.6974  142.1505  160.7985 C.2     1  UNL1        0.2481
     18 O         138.7058  143.4137  159.9896 O.2     1  UNL1       -0.2726
     19 N         138.3612  140.7800  160.2898 N.am    1  UNL1       -0.2825
     20 C         138.4797  139.8185  161.4350 C.ar    1  UNL1        0.0484
     21 C         138.2677  138.3364  161.5272 C.ar    1  UNL1        0.0153
     22 C         138.4651  137.6306  162.8360 C.ar    1  UNL1        0.0126
     23 C         138.8745  138.4069  164.0525 C.ar    1  UNL1        0.0575
     24 CL        139.0719  137.7010  165.3612 Cl      1  UNL1       -0.0823
     25 C         139.0865  139.8889  163.9602 C.ar    1  UNL1        0.0104
     26 C         138.8891  140.5947  162.6515 C.ar    1  UNL1        0.0184
     27 H         138.1985  143.6646  161.3414 H       1  UNL1        0.1242
     28 H         138.1074  140.5516  159.3664 H       1  UNL1        0.1549
@<TRIPOS>BOND
     1     2     1    1
     2     2     3    1
     3     3     4    1
     4     4     5    2
     5     5     6    1
     6     6     7    2
     7     7     8    1
     8     8     9    1
     9     9    10    1
    10     9    11    2
    11    11    12    1
    12    11    13    1
    13    13    14    2
    14     5    15    1
    15    15    16    1
    16    15    17    1
    17    17    18    2
    18    17    19   am
    19    19    20    1
    20    20    21   ar
    21    21    22   ar
    22    22    23   ar
    23    23    24    1
    24    23    25   ar
    25    25    26   ar
    26    16     2    1
    27    26    20   ar
    28    14     4    1
    29    26    15    1
    30    14     7    1
    31    16    27    1
    32    19    28    1
@<TRIPOS>MOLECULE
*****
 28 32 0 0 0
SMALL
GASTEIGER

@<TRIPOS>ATOM
      1 C         145.9315  141.7477  163.1787 C.3     1  UNL1        0.0175
      2 C         144.6447  141.2576  163.7738 C.3     1  UNL1        0.0592
      3 C         144.1764  141.7942  165.0939 C.3     1  UNL1        0.0434
      4 C         142.8897  141.3041  165.6888 C.2     1  UNL1       -0.0040
      5 C         142.0712  140.2772  164.9637 C.2     1  UNL1        0.0798
      6 N         140.8546  139.9855  165.7912 N.2     1  UNL1       -0.2519
      7 C         140.9211  140.8320  167.0278 C.2     1  UNL1        0.0638
      8 C         139.9990  140.9660  168.2032 C.3     1  UNL1        0.0859
      9 C         140.3345  141.9149  169.3153 C.2     1  UNL1        0.0687
     10 CL        139.4124  142.0490  170.4908 Cl      1  UNL1       -0.0842
     11 C         141.5923  142.7299  169.2521 C.2     1  UNL1        0.1470
     12 F         141.9278  143.6788  170.3643 F       1  UNL1       -0.2036
     13 C         142.5144  142.5958  168.0767 C.2     1  UNL1        0.0311
     14 C         142.1789  141.6469  166.9645 C.2     1  UNL1        0.0134
     15 C         142.5395  139.7406  163.6436 C.3     1  UNL1        0.1673
     16 N         143.8262  140.2308  163.0487 N.3     1  UNL1       -0.2858
     17 C         142.8782  139.1154  162.3229 C.2     1  UNL1        0.2481
     18 O         144.0948  139.4071  161.4954 O.2     1  UNL1       -0.2726
     19 N         141.7866  138.1471  161.9749 N.am    1  UNL1       -0.2825
     20 C         140.7733  138.1740  163.0806 C.ar    1  UNL1        0.0484
     21 C         139.4871  137.4289  163.2816 C.ar    1  UNL1        0.0153
     22 C         138.6662  137.6686  164.5138 C.ar    1  UNL1        0.0126
     23 C         139.1315  138.6535  165.5452 C.ar    1  UNL1        0.0575
     24 CL        138.3104  138.8932  166.7775 Cl      1  UNL1       -0.0823
     25 C         140.4177  139.3986  165.3442 C.ar    1  UNL1        0.0104
     26 C         141.2386  139.1588  164.1119 C.ar    1  UNL1        0.0184
     27 H         143.5970  140.6270  162.1371 H       1  UNL1        0.1242
     28 H         141.7430  137.5916  161.1634 H       1  UNL1        0.1549
@<TRIPOS>BOND
     1     2     1    1
     2     2     3    1
     3     3     4    1
     4     4     5    2
     5     5     6    1
     6     6     7    2
     7     7     8    1
     8     8     9    1
     9     9    10    1
    10     9    11    2
    11    11    12    1
    12    11    13    1
    13    13    14    2
    14     5    15    1
    15    15    16    1
    16    15    17    1
    17    17    18    2
    18    17    19   am
    19    19    20    1
    20    20    21   ar
    21    21    22   ar
    22    22    23   ar
    23    23    24    1
    24    23    25   ar
    25    25    26   ar
    26    16     2    1
    27    26    20   ar
    28    14     4    1
    29    26    15    1
    30    14     7    1
    31    16    27    1
    32    19    28    1
@<TRIPOS>MOLECULE
*****
 28 32 0 0 0
SMALL
GASTEIGER

@<TRIPOS>ATOM
      1 C         139.8651  143.2358  170.7147 C.3     1  UNL1        0.0175
      2 C         140.3625  142.6868  169.4104 C.3     1  UNL1        0.0592
      3 C         140.0098  143.3735  168.1243 C.3     1  UNL1        0.0434
      4 C         140.5073  142.8245  166.8200 C.2     1  UNL1       -0.0040
      5 C         141.3574  141.5888  166.8018 C.2     1  UNL1        0.0798
      6 N         141.6996  141.2825  165.3738 N.2     1  UNL1       -0.2519
      7 C         141.0609  142.3290  164.5094 C.2     1  UNL1        0.0638
      8 C         141.0552  142.5372  163.0240 C.3     1  UNL1        0.0859
      9 C         140.3125  143.6984  162.4323 C.2     1  UNL1        0.0687
     10 CL        140.3067  143.9066  160.9469 Cl      1  UNL1       -0.0842
     11 C         139.5756  144.6514  163.3261 C.2     1  UNL1        0.1470
     12 F         138.8330  145.8126  162.7344 F       1  UNL1       -0.2036
     13 C         139.5814  144.4432  164.8115 C.2     1  UNL1        0.0311
     14 C         140.3240  143.2820  165.4032 C.2     1  UNL1        0.0134
     15 C         141.7101  140.9021  168.0879 C.3     1  UNL1        0.1673
     16 N         141.2127  141.4511  169.3921 N.3     1  UNL1       -0.2858
     17 C         142.1422  140.1115  169.2871 C.2     1  UNL1        0.2481
     18 O         141.8000  140.4177  170.7151 O.2     1  UNL1       -0.2726
     19 N         142.9765  138.9608  168.8076 N.am    1  UNL1       -0.2825
     20 C         143.0601  139.0403  167.3121 C.ar    1  UNL1        0.0484
     21 C         143.7478  138.1752  166.2979 C.ar    1  UNL1        0.0153
     22 C         143.6527  138.5099  164.8388 C.ar    1  UNL1        0.0126
     23 C         142.8700  139.7097  164.3939 C.ar    1  UNL1        0.0575
     24 CL        142.7750  140.0443  162.9348 Cl      1  UNL1       -0.0823
     25 C         142.1824  140.5748  165.4082 C.ar    1  UNL1        0.0104
     26 C         142.2774  140.2401  166.8672 C.ar    1  UNL1        0.0184
     27 H         142.0357  141.6515  169.9603 H       1  UNL1        0.1242
     28 H         143.3957  138.2740  169.3749 H       1  UNL1        0.1549
@<TRIPOS>BOND
     1     2     1    1
     2     2     3    1
     3     3     4    1
     4     4     5    2
     5     5     6    1
     6     6     7    2
     7     7     8    1
     8     8     9    1
     9     9    10    1
    10     9    11    2
    11    11    12    1
    12    11    13    1
    13    13    14    2
    14     5    15    1
    15    15    16    1
    16    15    17    1
    17    17    18    2
    18    17    19   am
    19    19    20    1
    20    20    21   ar
    21    21    22   ar
    22    22    23   ar
    23    23    24    1
    24    23    25   ar
    25    25    26   ar
    26    16     2    1
    27    26    20   ar
    28    14     4    1
    29    26    15    1
    30    14     7    1
    31    16    27    1
    32    19    28    1
@<TRIPOS>MOLECULE
*****
 28 32 0 0 0
SMALL
GASTEIGER

@<TRIPOS>ATOM
      1 C         144.7199  143.6753  165.4951 C.3     1  UNL1        0.0175
      2 C         143.7192  142.6648  165.0181 C.3     1  UNL1        0.0592
      3 C         142.6731  142.1436  165.9582 C.3     1  UNL1        0.0434
      4 C         141.6725  141.1331  165.4811 C.2     1  UNL1       -0.0040
      5 C         141.7180  140.6437  164.0639 C.2     1  UNL1        0.0798
      6 N         140.6082  139.6515  163.8802 N.2     1  UNL1       -0.2519
      7 C         139.8767  139.5275  165.1839 C.2     1  UNL1        0.0638
      8 C         138.6967  138.6992  165.5979 C.3     1  UNL1        0.0859
      9 C         138.1745  138.7865  167.0014 C.2     1  UNL1        0.0687
     10 CL        136.9945  137.9581  167.4154 Cl      1  UNL1       -0.0842
     11 C         138.8322  139.7021  167.9908 C.2     1  UNL1        0.1470
     12 F         138.3099  139.7894  169.3942 F       1  UNL1       -0.2036
     13 C         140.0122  140.5305  167.5768 C.2     1  UNL1        0.0311
     14 C         140.5344  140.4432  166.1733 C.2     1  UNL1        0.0134
     15 C         142.7641  141.1649  163.1238 C.3     1  UNL1        0.1673
     16 N         143.7647  142.1755  163.6009 N.3     1  UNL1       -0.2858
     17 C         143.7470  141.5928  162.0745 C.2     1  UNL1        0.2481
     18 O         144.8568  142.5851  162.2582 O.2     1  UNL1       -0.2726
     19 N         143.4251  140.8542  160.8093 N.am    1  UNL1       -0.2825
     20 C         142.2434  139.9698  161.0766 C.ar    1  UNL1        0.0484
     21 C         141.4865  139.0145  160.2023 C.ar    1  UNL1        0.0153
     22 C         140.3212  138.2512  160.7584 C.ar    1  UNL1        0.0126
     23 C         139.9127  138.4433  162.1889 C.ar    1  UNL1        0.0575
     24 CL        138.7473  137.6799  162.7450 Cl      1  UNL1       -0.0823
     25 C         140.6695  139.3986  163.0632 C.ar    1  UNL1        0.0104
     26 C         141.8349  140.1619  162.5071 C.ar    1  UNL1        0.0184
     27 H         143.6631  142.9955  163.0028 H       1  UNL1        0.1242
     28 H         143.9052  140.9355  159.9536 H       1  UNL1        0.1549
@<TRIPOS>BOND
     1     2     1    1
     2     2     3    1
     3     3     4    1
     4     4     5    2
     5     5     6    1
     6     6     7    2
     7     7     8    1
     8     8     9    1
     9     9    10    1
    10     9    11    2
    11    11    12    1
    12    11    13    1
    13    13    14    2
    14     5    15    1
    15    15    16    1
    16    15    17    1
    17    17    18    2
    18    17    19   am
    19    19    20    1
    20    20    21   ar
    21    21    22   ar
    22    22    23   ar
    23    23    24    1
    24    23    25   ar
    25    25    26   ar
    26    16     2    1
    27    26    20   ar
    28    14     4    1
    29    26    15    1
    30    14     7    1
    31    16    27    1
    32    19    28    1
@<TRIPOS>MOLECULE
*****
 28 32 0 0 0
SMALL
GASTEIGER

@<TRIPOS>ATOM
      1 C         136.6659  137.8447  167.9837 C.3     1  UNL1        0.0175
      2 C         137.8255  138.5288  167.3225 C.3     1  UNL1        0.0592
      3 C         138.0645  138.3478  165.8528 C.3     1  UNL1        0.0434
      4 C         139.2242  139.0319  165.1917 C.2     1  UNL1       -0.0040
      5 C         140.1450  139.8971  166.0002 C.2     1  UNL1        0.0798
      6 N         141.1975  140.4406  165.0800 N.2     1  UNL1       -0.2519
      7 C         140.9272  139.9114  163.7027 C.2     1  UNL1        0.0638
      8 C         141.6340  140.1099  162.3947 C.3     1  UNL1        0.0859
      9 C         141.1214  139.4377  161.1556 C.2     1  UNL1        0.0687
     10 CL        141.8282  139.6361  159.8476 Cl      1  UNL1       -0.0842
     11 C         139.9018  138.5670  161.2246 C.2     1  UNL1        0.1470
     12 F         139.3891  137.8948  159.9855 F       1  UNL1       -0.2036
     13 C         139.1950  138.3686  162.5326 C.2     1  UNL1        0.0311
     14 C         139.7077  139.0408  163.7717 C.2     1  UNL1        0.0134
     15 C         139.9060  140.0781  167.4699 C.3     1  UNL1        0.1673
     16 N         138.7463  139.3939  168.1311 N.3     1  UNL1       -0.2858
     17 C         139.7939  140.3516  168.9405 C.2     1  UNL1        0.2481
     18 O         138.7414  139.8080  169.8607 O.2     1  UNL1       -0.2726
     19 N         140.9191  141.2641  169.3293 N.am    1  UNL1       -0.2825
     20 C         141.7266  141.5546  168.0991 C.ar    1  UNL1        0.0484
     21 C         142.9512  142.3918  167.8768 C.ar    1  UNL1        0.0153
     22 C         143.5496  142.4961  166.5053 C.ar    1  UNL1        0.0126
     23 C         142.9234  141.7630  165.3561 C.ar    1  UNL1        0.0575
     24 CL        143.5219  141.8673  163.9846 Cl      1  UNL1       -0.0823
     25 C         141.6989  140.9258  165.5784 C.ar    1  UNL1        0.0104
     26 C         141.1005  140.8215  166.9499 C.ar    1  UNL1        0.0184
     27 H         138.1716  140.1260  168.5485 H       1  UNL1        0.1242
     28 H         141.0965  141.6114  170.2333 H       1  UNL1        0.1549
@<TRIPOS>BOND
     1     2     1    1
     2     2     3    1
     3     3     4    1
     4     4     5    2
     5     5     6    1
     6     6     7    2
     7     7     8    1
     8     8     9    1
     9     9    10    1
    10     9    11    2
    11    11    12    1
    12    11    13    1
    13    13    14    2
    14     5    15    1
    15    15    16    1
    16    15    17    1
    17    17    18    2
    18    17    19   am
    19    19    20    1
    20    20    21   ar
    21    21    22   ar
    22    22    23   ar
    23    23    24    1
    24    23    25   ar
    25    25    26   ar
    26    16     2    1
    27    26    20   ar
    28    14     4    1
    29    26    15    1
    30    14     7    1
    31    16    27    1
    32    19    28    1
@<TRIPOS>MOLECULE
*****
 28 32 0 0 0
SMALL
GASTEIGER

@<TRIPOS>ATOM
      1 C         138.4538  145.1296  165.8008 C.3     1  UNL1        0.0175
      2 C         139.4511  144.1840  165.1998 C.3     1  UNL1        0.0592
      3 C         140.0547  143.0972  166.0393 C.3     1  UNL1        0.0434
      4 C         141.0520  142.1517  165.4383 C.2     1  UNL1       -0.0040
      5 C         141.4458  142.2927  163.9977 C.2     1  UNL1        0.0798
      6 N         142.4465  141.2204  163.6835 N.2     1  UNL1       -0.2519
      7 C         142.6712  140.4166  164.9299 C.2     1  UNL1        0.0638
      8 C         143.5492  139.2349  165.2174 C.3     1  UNL1        0.0859
      9 C         143.5654  138.6287  166.5893 C.2     1  UNL1        0.0687
     10 CL        144.4434  137.4470  166.8768 Cl      1  UNL1       -0.0842
     11 C         142.7036  139.2041  167.6738 C.2     1  UNL1        0.1470
     12 F         142.7198  138.5979  169.0458 F       1  UNL1       -0.2036
     13 C         141.8255  140.3858  167.3863 C.2     1  UNL1        0.0311
     14 C         141.8093  140.9920  166.0143 C.2     1  UNL1        0.0134
     15 C         140.8423  143.3795  163.1583 C.3     1  UNL1        0.1673
     16 N         139.8450  144.3251  163.7593 N.3     1  UNL1       -0.2858
     17 C         140.3260  144.4117  162.2002 C.2     1  UNL1        0.2481
     18 O         139.3253  145.4841  162.5144 O.2     1  UNL1       -0.2726
     19 N         140.9861  144.1834  160.8728 N.am    1  UNL1       -0.2825
     20 C         141.9103  143.0100  161.0104 C.ar    1  UNL1        0.0484
     21 C         142.8214  142.3298  160.0321 C.ar    1  UNL1        0.0153
     22 C         143.6436  141.1527  160.4663 C.ar    1  UNL1        0.0126
     23 C         143.5547  140.6559  161.8788 C.ar    1  UNL1        0.0575
     24 CL        144.3769  139.4788  162.3130 Cl      1  UNL1       -0.0823
     25 C         142.6436  141.3361  162.8572 C.ar    1  UNL1        0.0104
     26 C         141.8215  142.5132  162.4230 C.ar    1  UNL1        0.0184
     27 H         138.9896  144.2388  163.2104 H       1  UNL1        0.1242
     28 H         140.8386  144.7110  160.0548 H       1  UNL1        0.1549
@<TRIPOS>BOND
     1     2     1    1
     2     2     3    1
     3     3     4    1
     4     4     5    2
     5     5     6    1
     6     6     7    2
     7     7     8    1
     8     8     9    1
     9     9    10    1
    10     9    11    2
    11    11    12    1
    12    11    13    1
    13    13    14    2
    14     5    15    1
    15    15    16    1
    16    15    17    1
    17    17    18    2
    18    17    19   am
    19    19    20    1
    20    20    21   ar
    21    21    22   ar
    22    22    23   ar
    23    23    24    1
    24    23    25   ar
    25    25    26   ar
    26    16     2    1
    27    26    20   ar
    28    14     4    1
    29    26    15    1
    30    14     7    1
    31    16    27    1
    32    19    28    1
@<TRIPOS>MOLECULE
*****
 28 32 0 0 0
SMALL
GASTEIGER

@<TRIPOS>ATOM
      1 C         139.0991  140.2490  169.6134 C.3     1  UNL1        0.0175
      2 C         139.7990  140.4527  168.3024 C.3     1  UNL1        0.0592
      3 C         139.2427  139.8391  167.0519 C.3     1  UNL1        0.0434
      4 C         139.9427  140.0428  165.7409 C.2     1  UNL1       -0.0040
      5 C         141.1990  140.8601  165.6805 C.2     1  UNL1        0.0798
      6 N         141.6661  140.8875  164.2554 N.2     1  UNL1       -0.2519
      7 C         140.6984  140.0872  163.4349 C.2     1  UNL1        0.0638
      8 C         140.6495  139.7664  161.9705 C.3     1  UNL1        0.0859
      9 C         139.5355  138.9235  161.4241 C.2     1  UNL1        0.0687
     10 CL        139.4867  138.6027  159.9596 Cl      1  UNL1       -0.0842
     11 C         138.4704  138.4014  162.3422 C.2     1  UNL1        0.1470
     12 F         137.3564  137.5585  161.7958 F       1  UNL1       -0.2036
     13 C         138.5193  138.7222  163.8066 C.2     1  UNL1        0.0311
     14 C         139.6333  139.5651  164.3530 C.2     1  UNL1        0.0134
     15 C         141.7554  141.4737  166.9311 C.3     1  UNL1        0.1673
     16 N         141.0554  141.2700  168.2420 N.3     1  UNL1       -0.2858
     17 C         142.4268  142.1455  168.0921 C.2     1  UNL1        0.2481
     18 O         141.9597  142.1180  169.5172 O.2     1  UNL1       -0.2726
     19 N         143.6472  142.8496  167.5776 N.am    1  UNL1       -0.2825
     20 C         143.7302  142.6130  166.0987 C.ar    1  UNL1        0.0484
     21 C         144.7193  143.0620  165.0644 C.ar    1  UNL1        0.0153
     22 C         144.5391  142.6606  163.6304 C.ar    1  UNL1        0.0126
     23 C         143.3699  141.8101  163.2308 C.ar    1  UNL1        0.0575
     24 CL        143.1898  141.4087  161.7967 Cl      1  UNL1       -0.0823
     25 C         142.3808  141.3611  164.2652 C.ar    1  UNL1        0.0104
     26 C         142.5609  141.7626  165.6991 C.ar    1  UNL1        0.0184
     27 H         140.8212  142.1967  168.5978 H       1  UNL1        0.1242
     28 H         144.2823  143.3749  168.1161 H       1  UNL1        0.1549
@<TRIPOS>BOND
     1     2     1    1
     2     2     3    1
     3     3     4    1
     4     4     5    2
     5     5     6    1
     6     6     7    2
     7     7     8    1
     8     8     9    1
     9     9    10    1
    10     9    11    2
    11    11    12    1
    12    11    13    1
    13    13    14    2
    14     5    15    1
    15    15    16    1
    16    15    17    1
    17    17    18    2
    18    17    19   am
    19    19    20    1
    20    20    21   ar
    21    21    22   ar
    22    22    23   ar
    23    23    24    1
    24    23    25   ar
    25    25    26   ar
    26    16     2    1
    27    26    20   ar
    28    14     4    1
    29    26    15    1
    30    14     7    1
    31    16    27    1
    32    19    28    1
@<TRIPOS>MOLECULE
*****
 28 32 0 0 0
SMALL
GASTEIGER

@<TRIPOS>ATOM
      1 C         138.1536  138.0267  162.1060 C.3     1  UNL1        0.0175
      2 C         139.1009  138.8278  162.9490 C.3     1  UNL1        0.0592
      3 C         138.8467  138.9863  164.4187 C.3     1  UNL1        0.0434
      4 C         139.7941  139.7874  165.2617 C.2     1  UNL1       -0.0040
      5 C         140.9959  140.4301  164.6349 C.2     1  UNL1        0.0798
      6 N         141.7478  141.1556  165.7111 N.2     1  UNL1       -0.2519
      7 C         141.0108  140.9614  167.0030 C.2     1  UNL1        0.0638
      8 C         141.2832  141.4452  168.3964 C.3     1  UNL1        0.0859
      9 C         140.3482  141.0835  169.5122 C.2     1  UNL1        0.0687
     10 CL        140.6205  141.5673  170.9056 Cl      1  UNL1       -0.0842
     11 C         139.1407  140.2379  169.2345 C.2     1  UNL1        0.1470
     12 F         138.2057  139.8762  170.3502 F       1  UNL1       -0.2036
     13 C         138.8683  139.7541  167.8411 C.2     1  UNL1        0.0311
     14 C         139.8034  140.1158  166.7253 C.2     1  UNL1        0.0134
     15 C         141.2501  140.2716  163.1651 C.3     1  UNL1        0.1673
     16 N         140.3027  139.4705  162.3222 N.3     1  UNL1       -0.2858
     17 C         141.6327  140.2011  161.7164 C.2     1  UNL1        0.2481
     18 O         140.8807  139.4756  160.6402 O.2     1  UNL1       -0.2726
     19 N         142.8992  140.9835  161.5329 N.am    1  UNL1       -0.2825
     20 C         143.2995  141.5375  162.8682 C.ar    1  UNL1        0.0484
     21 C         144.4603  142.3858  163.2958 C.ar    1  UNL1        0.0153
     22 C         144.6018  142.7941  164.7321 C.ar    1  UNL1        0.0126
     23 C         143.5826  142.3542  165.7409 C.ar    1  UNL1        0.0575
     24 CL        143.7243  142.7625  167.1773 Cl      1  UNL1       -0.0823
     25 C         142.4218  141.5059  165.3133 C.ar    1  UNL1        0.0104
     26 C         142.2802  141.0976  163.8769 C.ar    1  UNL1        0.0184
     27 H         140.8487  138.7215  161.8964 H       1  UNL1        0.1242
     28 H         143.3829  141.1110  160.6850 H       1  UNL1        0.1549
@<TRIPOS>BOND
     1     2     1    1
     2     2     3    1
     3     3     4    1
     4     4     5    2
     5     5     6    1
     6     6     7    2
     7     7     8    1
     8     8     9    1
     9     9    10    1
    10     9    11    2
    11    11    12    1
    12    11    13    1
    13    13    14    2
    14     5    15    1
    15    15    16    1
    16    15    17    1
    17    17    18    2
    18    17    19   am
    19    19    20    1
    20    20    21   ar
    21    21    22   ar
    22    22    23   ar
    23    23    24    1
    24    23    25   ar
    25    25    26   ar
    26    16     2    1
    27    26    20   ar
    28    14     4    1
    29    26    15    1
    30    14     7    1
    31    16    27    1
    32    19    28    1
