@<TRIPOS>MOLECULE
*****
 31 32 0 0 0
SMALL
GASTEIGER

@<TRIPOS>ATOM
      1 C         139.2360  139.6699  167.2851 C.ar    1  UNL1        0.1986
      2 N         138.5091  139.4806  168.5835 N.ar    1  UNL1       -0.0331
      3 O         137.3662  138.5397  168.3419 O.2     1  UNL1       -0.2400
      4 N         137.3868  138.1475  166.8942 N.ar    1  UNL1       -0.0391
      5 C         138.5424  138.8460  166.2411 C.ar    1  UNL1        0.2426
      6 C         138.9355  138.7393  164.7974 C.2     1  UNL1        0.3943
      7 N         140.0060  137.7746  164.3809 N.2     1  UNL1        0.1539
      8 O         140.3990  137.6679  162.9372 O.2     1  UNL1       -0.3110
      9 H         141.0677  137.0653  162.6770 H       1  UNL1        0.3605
     10 N         138.2580  139.5972  163.7703 N.pl3   1  UNL1       -0.1942
     11 H         137.6078  139.1989  163.1476 H       1  UNL1        0.2987
     12 C         138.5714  141.0621  163.6919 C.ar    1  UNL1        0.1364
     13 C         137.4584  142.0629  163.5951 C.ar    1  UNL1        0.0425
     14 C         137.7717  143.5278  163.5167 C.ar    1  UNL1        0.0336
     15 C         139.1980  143.9917  163.5352 C.ar    1  UNL1        0.1465
     16 F         139.5113  145.4565  163.4568 F       1  UNL1       -0.2036
     17 C         140.3111  142.9908  163.6320 C.ar    1  UNL1        0.0654
     18 BR        141.7374  143.4547  163.6505 Br      1  UNL1       -0.0465
     19 C         139.9977  141.5260  163.7104 C.ar    1  UNL1        0.0491
     20 N         140.4445  140.5318  167.0688 N.pl3   1  UNL1       -0.3127
     21 H         141.2843  140.1305  166.7481 H       1  UNL1        0.1484
     22 C         140.3734  142.0051  167.3412 C.3     1  UNL1        0.1074
     23 C         140.6705  142.5291  168.7149 C.3     1  UNL1        0.1137
     24 N         140.1522  141.8052  169.9221 N.3     1  UNL1       -0.1679
     25 H         139.5275  142.4499  170.4063 H       1  UNL1        0.1499
     26 N         142.0679  140.7493  171.9752 N.3     1  UNL1       -0.1934
     27 S         141.1101  141.2772  170.9486 S.O2    1  UNL1        0.0927
     28 O         140.5581  142.2394  171.9584 O.2     1  UNL1       -0.1415
     29 O         141.6620  140.3151  169.9388 O.2     1  UNL1       -0.1415
     30 H         141.9312  141.2465  172.8553 H       1  UNL1        0.1453
     31 H         143.0249  140.8890  171.6509 H       1  UNL1        0.1453
@<TRIPOS>BOND
     1    26    27    1
     2    27    28    2
     3    27    29    2
     4    27    24    1
     5    24    23    1
     6    23    22    1
     7    22    20    1
     8    20     1    1
     9     1     2   ar
    10     2     3   ar
    11     3     4   ar
    12     4     5   ar
    13     5     6    1
    14     6     7    2
    15     7     8    1
    16     6    10    1
    17    10    12    1
    18    12    13   ar
    19    13    14   ar
    20    14    15   ar
    21    15    16    1
    22    15    17   ar
    23    17    18    1
    24    17    19   ar
    25     5     1   ar
    26    19    12   ar
    27    26    30    1
    28    26    31    1
    29    24    25    1
    30    20    21    1
    31     8     9    1
    32    10    11    1
@<TRIPOS>MOLECULE
*****
 31 32 0 0 0
SMALL
GASTEIGER

@<TRIPOS>ATOM
      1 C         137.8695  142.4595  162.6891 C.ar    1  UNL1        0.1986
      2 N         137.7441  142.0197  161.2606 N.ar    1  UNL1       -0.0331
      3 O         138.3337  143.0912  160.3922 O.2     1  UNL1       -0.2400
      4 N         138.8235  144.1933  161.2841 N.ar    1  UNL1       -0.0391
      5 C         138.5366  143.8029  162.7037 C.ar    1  UNL1        0.2426
      6 C         138.8601  144.6136  163.9236 C.2     1  UNL1        0.3943
      7 N         137.9034  144.6450  165.0786 N.2     1  UNL1        0.1539
      8 O         138.2269  145.4556  166.2985 O.2     1  UNL1       -0.3110
      9 H         137.6293  145.4753  167.0200 H       1  UNL1        0.3605
     10 N         140.1401  145.3927  163.9886 N.pl3   1  UNL1       -0.1942
     11 H         140.1216  146.3754  163.9322 H       1  UNL1        0.2987
     12 C         141.4484  144.6747  164.1396 C.ar    1  UNL1        0.1364
     13 C         142.6735  145.1944  163.4475 C.ar    1  UNL1        0.0425
     14 C         143.9817  144.4763  163.5985 C.ar    1  UNL1        0.0336
     15 C         144.0650  143.2386  164.4417 C.ar    1  UNL1        0.1465
     16 F         145.3733  142.5205  164.5927 F       1  UNL1       -0.2036
     17 C         142.8399  142.7188  165.1339 C.ar    1  UNL1        0.0654
     18 BR        142.9231  141.4811  165.9771 Br      1  UNL1       -0.0465
     19 C         141.5316  143.4369  164.9829 C.ar    1  UNL1        0.0491
     20 N         137.4087  141.6909  163.8920 N.pl3   1  UNL1       -0.3127
     21 H         136.5908  141.9640  164.3670 H       1  UNL1        0.1484
     22 C         138.1940  140.5061  164.3711 C.3     1  UNL1        0.1074
     23 C         138.3466  139.3015  163.4904 C.3     1  UNL1        0.1137
     24 N         139.0253  138.0707  164.0142 N.3     1  UNL1       -0.1679
     25 H         139.2977  138.2715  164.9764 H       1  UNL1        0.1499
     26 N         141.4613  136.9973  162.6306 N.3     1  UNL1       -0.1934
     27 S         140.2433  137.5340  163.3224 S.O2    1  UNL1        0.0927
     28 O         140.8995  137.3088  164.6524 O.2     1  UNL1       -0.1415
     29 O         139.5872  137.7591  161.9924 O.2     1  UNL1       -0.1415
     30 H         142.1580  136.7313  163.3265 H       1  UNL1        0.1453
     31 H         141.8489  137.7154  162.0187 H       1  UNL1        0.1453
@<TRIPOS>BOND
     1    26    27    1
     2    27    28    2
     3    27    29    2
     4    27    24    1
     5    24    23    1
     6    23    22    1
     7    22    20    1
     8    20     1    1
     9     1     2   ar
    10     2     3   ar
    11     3     4   ar
    12     4     5   ar
    13     5     6    1
    14     6     7    2
    15     7     8    1
    16     6    10    1
    17    10    12    1
    18    12    13   ar
    19    13    14   ar
    20    14    15   ar
    21    15    16    1
    22    15    17   ar
    23    17    18    1
    24    17    19   ar
    25     5     1   ar
    26    19    12   ar
    27    26    30    1
    28    26    31    1
    29    24    25    1
    30    20    21    1
    31     8     9    1
    32    10    11    1
@<TRIPOS>MOLECULE
*****
 31 32 0 0 0
SMALL
GASTEIGER

@<TRIPOS>ATOM
      1 C         137.7324  142.0753  163.7264 C.ar    1  UNL1        0.1986
      2 N         137.7340  143.5429  163.4159 N.ar    1  UNL1       -0.0331
      3 O         138.6116  144.2283  164.4209 O.2     1  UNL1       -0.2400
      4 N         139.1522  143.1844  165.3526 N.ar    1  UNL1       -0.0391
      5 C         138.6089  141.8538  164.9234 C.ar    1  UNL1        0.2426
      6 C         138.8923  140.5335  165.5764 C.2     1  UNL1        0.3943
      7 N         137.8129  139.4961  165.6702 N.2     1  UNL1        0.1539
      8 O         138.0963  138.1758  166.3232 O.2     1  UNL1       -0.3110
      9 H         137.4220  137.5278  166.3818 H       1  UNL1        0.3605
     10 N         140.2550  140.2505  166.1357 N.pl3   1  UNL1       -0.1942
     11 H         140.9329  139.8044  165.5783 H       1  UNL1        0.2987
     12 C         140.5850  140.6474  167.5441 C.ar    1  UNL1        0.1364
     13 C         139.5912  140.4106  168.6424 C.ar    1  UNL1        0.0425
     14 C         139.9211  140.8074  170.0508 C.ar    1  UNL1        0.0336
     15 C         141.2448  141.4410  170.3610 C.ar    1  UNL1        0.1465
     16 F         141.5747  141.8378  171.7694 F       1  UNL1       -0.2036
     17 C         142.2387  141.6778  169.2627 C.ar    1  UNL1        0.0654
     18 BR        143.5624  142.3114  169.5728 Br      1  UNL1       -0.0465
     19 C         141.9088  141.2810  167.8542 C.ar    1  UNL1        0.0491
     20 N         136.9854  141.0155  162.9723 N.pl3   1  UNL1       -0.3127
     21 H         136.0570  140.7986  163.2178 H       1  UNL1        0.1484
     22 C         137.6529  140.2860  161.8444 C.3     1  UNL1        0.1074
     23 C         137.9466  138.8203  161.9686 C.3     1  UNL1        0.1137
     24 N         138.7152  138.3070  163.1501 N.3     1  UNL1       -0.1679
     25 H         138.8887  139.1069  163.7587 H       1  UNL1        0.1499
     26 N         141.3544  136.9396  162.7435 N.3     1  UNL1       -0.1934
     27 S         140.0348  137.6233  162.9468 S.O2    1  UNL1        0.0927
     28 O         139.8485  137.7056  161.4607 O.2     1  UNL1       -0.1415
     29 O         140.2211  137.5410  164.4329 O.2     1  UNL1       -0.1415
     30 H         141.5341  136.8374  161.7447 H       1  UNL1        0.1453
     31 H         141.3310  136.0184  163.1808 H       1  UNL1        0.1453
@<TRIPOS>BOND
     1    26    27    1
     2    27    28    2
     3    27    29    2
     4    27    24    1
     5    24    23    1
     6    23    22    1
     7    22    20    1
     8    20     1    1
     9     1     2   ar
    10     2     3   ar
    11     3     4   ar
    12     4     5   ar
    13     5     6    1
    14     6     7    2
    15     7     8    1
    16     6    10    1
    17    10    12    1
    18    12    13   ar
    19    13    14   ar
    20    14    15   ar
    21    15    16    1
    22    15    17   ar
    23    17    18    1
    24    17    19   ar
    25     5     1   ar
    26    19    12   ar
    27    26    30    1
    28    26    31    1
    29    24    25    1
    30    20    21    1
    31     8     9    1
    32    10    11    1
@<TRIPOS>MOLECULE
*****
 31 32 0 0 0
SMALL
GASTEIGER

@<TRIPOS>ATOM
      1 C         138.0537  142.6324  161.5518 C.ar    1  UNL1        0.1986
      2 N         137.3130  141.3867  161.9386 N.ar    1  UNL1       -0.0331
      3 O         137.0866  141.4235  163.4210 O.2     1  UNL1       -0.2400
      4 N         137.6874  142.6919  163.9503 N.ar    1  UNL1       -0.0391
      5 C         138.2851  143.4391  162.7951 C.ar    1  UNL1        0.2426
      6 C         138.9904  144.7608  162.8700 C.2     1  UNL1        0.3943
      7 N         138.9086  145.7208  161.7202 N.2     1  UNL1        0.1539
      8 O         139.6139  147.0425  161.7951 O.2     1  UNL1       -0.3110
      9 H         139.5628  147.6422  161.0770 H       1  UNL1        0.3605
     10 N         139.7775  145.1226  164.0946 N.pl3   1  UNL1       -0.1942
     11 H         139.3862  145.7196  164.7726 H       1  UNL1        0.2987
     12 C         141.1607  144.5748  164.2861 C.ar    1  UNL1        0.1364
     13 C         142.3438  145.3176  163.7400 C.ar    1  UNL1        0.0425
     14 C         143.7270  144.7697  163.9315 C.ar    1  UNL1        0.0336
     15 C         143.9270  143.4791  164.6692 C.ar    1  UNL1        0.1465
     16 F         145.3102  142.9313  164.8608 F       1  UNL1       -0.2036
     17 C         142.7438  142.7363  165.2154 C.ar    1  UNL1        0.0654
     18 BR        142.9438  141.4457  165.9531 Br      1  UNL1       -0.0465
     19 C         141.3606  143.2841  165.0239 C.ar    1  UNL1        0.0491
     20 N         138.4870  143.0058  160.1652 N.pl3   1  UNL1       -0.3127
     21 H         137.8852  143.5257  159.5847 H       1  UNL1        0.1484
     22 C         139.8369  142.5873  159.6629 C.3     1  UNL1        0.1074
     23 C         141.0196  143.4910  159.8486 C.3     1  UNL1        0.1137
     24 N         140.8753  144.9687  159.6346 N.3     1  UNL1       -0.1679
     25 H         139.8828  145.1842  159.7281 H       1  UNL1        0.1499
     26 N         141.7919  146.2082  157.0610 N.3     1  UNL1       -0.1934
     27 S         141.3336  145.5885  158.3478 S.O2    1  UNL1        0.0927
     28 O         142.6516  144.8842  158.4780 O.2     1  UNL1       -0.1415
     29 O         140.0156  146.2927  158.2176 O.2     1  UNL1       -0.1415
     30 H         142.7408  145.8972  156.8528 H       1  UNL1        0.1453
     31 H         141.7789  147.2243  157.1494 H       1  UNL1        0.1453
@<TRIPOS>BOND
     1    26    27    1
     2    27    28    2
     3    27    29    2
     4    27    24    1
     5    24    23    1
     6    23    22    1
     7    22    20    1
     8    20     1    1
     9     1     2   ar
    10     2     3   ar
    11     3     4   ar
    12     4     5   ar
    13     5     6    1
    14     6     7    2
    15     7     8    1
    16     6    10    1
    17    10    12    1
    18    12    13   ar
    19    13    14   ar
    20    14    15   ar
    21    15    16    1
    22    15    17   ar
    23    17    18    1
    24    17    19   ar
    25     5     1   ar
    26    19    12   ar
    27    26    30    1
    28    26    31    1
    29    24    25    1
    30    20    21    1
    31     8     9    1
    32    10    11    1
@<TRIPOS>MOLECULE
*****
 31 32 0 0 0
SMALL
GASTEIGER

@<TRIPOS>ATOM
      1 C         137.7415  142.3974  163.7302 C.ar    1  UNL1        0.1986
      2 N         137.6918  143.8465  163.3459 N.ar    1  UNL1       -0.0331
      3 O         138.5766  144.6067  164.2889 O.2     1  UNL1       -0.2400
      4 N         139.1731  143.6275  165.2559 N.ar    1  UNL1       -0.0391
      5 C         138.6571  142.2620  164.9106 C.ar    1  UNL1        0.2426
      6 C         138.9969  140.9854  165.6211 C.2     1  UNL1        0.3943
      7 N         138.1372  139.7706  165.4328 N.2     1  UNL1        0.1539
      8 O         138.4770  138.4940  166.1433 O.2     1  UNL1       -0.3110
      9 H         137.9400  137.7351  166.0257 H       1  UNL1        0.3605
     10 N         140.1963  140.9235  166.5197 N.pl3   1  UNL1       -0.1942
     11 H         140.1157  141.1808  167.4666 H       1  UNL1        0.2987
     12 C         141.5184  140.4695  165.9757 C.ar    1  UNL1        0.1364
     13 C         141.9327  139.0344  166.1121 C.ar    1  UNL1        0.0425
     14 C         143.2548  138.5804  165.5681 C.ar    1  UNL1        0.0336
     15 C         144.1626  139.5616  164.8877 C.ar    1  UNL1        0.1465
     16 F         145.4847  139.1077  164.3437 F       1  UNL1       -0.2036
     17 C         143.7484  140.9969  164.7513 C.ar    1  UNL1        0.0654
     18 BR        144.6562  141.9781  164.0709 Br      1  UNL1       -0.0465
     19 C         142.4263  141.4508  165.2953 C.ar    1  UNL1        0.0491
     20 N         137.0051  141.2799  163.0529 N.pl3   1  UNL1       -0.3127
     21 H         136.1548  140.9531  163.4265 H       1  UNL1        0.1484
     22 C         137.5639  140.6603  161.8065 C.3     1  UNL1        0.1074
     23 C         138.3789  139.4040  161.8937 C.3     1  UNL1        0.1137
     24 N         139.6734  139.4010  162.6515 N.3     1  UNL1       -0.1679
     25 H         140.2916  140.0620  162.1810 H       1  UNL1        0.1499
     26 N         141.2176  136.8490  162.9725 N.3     1  UNL1       -0.1934
     27 S         140.4455  138.1250  162.8120 S.O2    1  UNL1        0.0927
     28 O         139.1984  137.4279  163.2689 O.2     1  UNL1       -0.1415
     29 O         141.6926  138.8221  162.3550 O.2     1  UNL1       -0.1415
     30 H         140.5931  136.1129  163.3018 H       1  UNL1        0.1453
     31 H         141.9668  136.9879  163.6506 H       1  UNL1        0.1453
@<TRIPOS>BOND
     1    26    27    1
     2    27    28    2
     3    27    29    2
     4    27    24    1
     5    24    23    1
     6    23    22    1
     7    22    20    1
     8    20     1    1
     9     1     2   ar
    10     2     3   ar
    11     3     4   ar
    12     4     5   ar
    13     5     6    1
    14     6     7    2
    15     7     8    1
    16     6    10    1
    17    10    12    1
    18    12    13   ar
    19    13    14   ar
    20    14    15   ar
    21    15    16    1
    22    15    17   ar
    23    17    18    1
    24    17    19   ar
    25     5     1   ar
    26    19    12   ar
    27    26    30    1
    28    26    31    1
    29    24    25    1
    30    20    21    1
    31     8     9    1
    32    10    11    1
@<TRIPOS>MOLECULE
*****
 31 32 0 0 0
SMALL
GASTEIGER

@<TRIPOS>ATOM
      1 C         139.4695  139.8056  166.8509 C.ar    1  UNL1        0.1986
      2 N         139.0894  139.6186  168.2898 N.ar    1  UNL1       -0.0331
      3 O         137.8053  138.8445  168.3332 O.2     1  UNL1       -0.2400
      4 N         137.3918  138.5531  166.9211 N.ar    1  UNL1       -0.0391
      5 C         138.4203  139.1471  166.0049 C.ar    1  UNL1        0.2426
      6 C         138.4027  139.0923  164.5060 C.2     1  UNL1        0.3943
      7 N         139.3388  138.1736  163.7781 N.2     1  UNL1        0.1539
      8 O         139.3212  138.1188  162.2792 O.2     1  UNL1       -0.3110
      9 H         139.9060  137.5450  161.8245 H       1  UNL1        0.3605
     10 N         137.4490  139.9560  163.7351 N.pl3   1  UNL1       -0.1942
     11 H         136.5812  139.5932  163.4443 H       1  UNL1        0.2987
     12 C         137.8175  141.3726  163.4070 C.ar    1  UNL1        0.1364
     13 C         137.9742  141.7947  161.9762 C.ar    1  UNL1        0.0425
     14 C         138.3427  143.2112  161.6482 C.ar    1  UNL1        0.0336
     15 C         138.5545  144.2057  162.7510 C.ar    1  UNL1        0.1465
     16 F         138.9230  145.6222  162.4229 F       1  UNL1       -0.2036
     17 C         138.3978  143.7836  164.1819 C.ar    1  UNL1        0.0654
     18 BR        138.6095  144.7781  165.2846 Br      1  UNL1       -0.0465
     19 C         138.0293  142.3671  164.5099 C.ar    1  UNL1        0.0491
     20 N         140.6853  140.5249  166.3464 N.pl3   1  UNL1       -0.3127
     21 H         140.6867  141.5077  166.2875 H       1  UNL1        0.1484
     22 C         141.8988  139.7470  165.9317 C.3     1  UNL1        0.1074
     23 C         142.4265  139.8697  164.5329 C.3     1  UNL1        0.1137
     24 N         142.1884  138.7688  163.5423 N.3     1  UNL1       -0.1679
     25 H         142.0049  137.9224  164.0811 H       1  UNL1        0.1499
     26 N         144.3058  138.0746  161.5336 N.3     1  UNL1       -0.1934
     27 S         143.2471  138.4217  162.5380 S.O2    1  UNL1        0.0927
     28 O         144.2794  139.0939  163.3938 O.2     1  UNL1       -0.1415
     29 O         142.2148  137.7495  161.6821 O.2     1  UNL1       -0.1415
     30 H         145.2076  138.4269  161.8547 H       1  UNL1        0.1453
     31 H         144.0750  138.4996  160.6356 H       1  UNL1        0.1453
@<TRIPOS>BOND
     1    26    27    1
     2    27    28    2
     3    27    29    2
     4    27    24    1
     5    24    23    1
     6    23    22    1
     7    22    20    1
     8    20     1    1
     9     1     2   ar
    10     2     3   ar
    11     3     4   ar
    12     4     5   ar
    13     5     6    1
    14     6     7    2
    15     7     8    1
    16     6    10    1
    17    10    12    1
    18    12    13   ar
    19    13    14   ar
    20    14    15   ar
    21    15    16    1
    22    15    17   ar
    23    17    18    1
    24    17    19   ar
    25     5     1   ar
    26    19    12   ar
    27    26    30    1
    28    26    31    1
    29    24    25    1
    30    20    21    1
    31     8     9    1
    32    10    11    1
@<TRIPOS>MOLECULE
*****
 31 32 0 0 0
SMALL
GASTEIGER

@<TRIPOS>ATOM
      1 C         142.4069  142.2465  170.6036 C.ar    1  UNL1        0.1986
      2 N         141.5933  142.0066  171.8407 N.ar    1  UNL1       -0.0331
      3 O         140.7141  140.8166  171.5938 O.2     1  UNL1       -0.2400
      4 N         140.9845  140.3211  170.2040 N.ar    1  UNL1       -0.0391
      5 C         142.0307  141.2047  169.5921 C.ar    1  UNL1        0.2426
      6 C         142.6006  141.0703  168.2111 C.2     1  UNL1        0.3943
      7 N         142.9117  142.2968  167.4055 N.2     1  UNL1        0.1539
      8 O         143.4816  142.1624  166.0245 O.2     1  UNL1       -0.3110
      9 H         143.6760  142.9285  165.5212 H       1  UNL1        0.3605
     10 N         142.8593  139.7095  167.6357 N.pl3   1  UNL1       -0.1942
     11 H         143.6252  139.1784  167.9528 H       1  UNL1        0.2987
     12 C         141.9510  139.1577  166.5771 C.ar    1  UNL1        0.1364
     13 C         142.4709  138.1532  165.5919 C.ar    1  UNL1        0.0425
     14 C         141.5627  137.6015  164.5333 C.ar    1  UNL1        0.0336
     15 C         140.1345  138.0542  164.4599 C.ar    1  UNL1        0.1465
     16 F         139.2263  137.5024  163.4013 F       1  UNL1       -0.2036
     17 C         139.6146  139.0587  165.4451 C.ar    1  UNL1        0.0654
     18 BR        138.1865  139.5115  165.3717 Br      1  UNL1       -0.0465
     19 C         140.5228  139.6105  166.5037 C.ar    1  UNL1        0.0491
     20 N         143.4192  143.3367  170.4118 N.pl3   1  UNL1       -0.3127
     21 H         143.1241  144.2711  170.3166 H       1  UNL1        0.1484
     22 C         144.8808  143.0033  170.3649 C.3     1  UNL1        0.1074
     23 C         145.8944  144.0073  170.8285 C.3     1  UNL1        0.1137
     24 N         145.4833  145.1177  171.7493 N.3     1  UNL1       -0.1679
     25 H         144.6927  145.5881  171.3087 H       1  UNL1        0.1499
     26 N         147.4536  147.2525  172.4980 N.3     1  UNL1       -0.1934
     27 S         146.4684  146.1851  172.1237 S.O2    1  UNL1        0.0927
     28 O         145.7552  147.1566  171.2305 O.2     1  UNL1       -0.1415
     29 O         147.1816  145.2137  173.0168 O.2     1  UNL1       -0.1415
     30 H         147.2196  148.1173  172.0103 H       1  UNL1        0.1453
     31 H         148.3930  146.9562  172.2332 H       1  UNL1        0.1453
@<TRIPOS>BOND
     1    26    27    1
     2    27    28    2
     3    27    29    2
     4    27    24    1
     5    24    23    1
     6    23    22    1
     7    22    20    1
     8    20     1    1
     9     1     2   ar
    10     2     3   ar
    11     3     4   ar
    12     4     5   ar
    13     5     6    1
    14     6     7    2
    15     7     8    1
    16     6    10    1
    17    10    12    1
    18    12    13   ar
    19    13    14   ar
    20    14    15   ar
    21    15    16    1
    22    15    17   ar
    23    17    18    1
    24    17    19   ar
    25     5     1   ar
    26    19    12   ar
    27    26    30    1
    28    26    31    1
    29    24    25    1
    30    20    21    1
    31     8     9    1
    32    10    11    1
@<TRIPOS>MOLECULE
*****
 31 32 0 0 0
SMALL
GASTEIGER

@<TRIPOS>ATOM
      1 C         137.8254  139.8611  162.9491 C.ar    1  UNL1        0.1986
      2 N         138.0231  139.2634  161.5876 N.ar    1  UNL1       -0.0331
      3 O         138.9105  138.0628  161.7329 O.2     1  UNL1       -0.2400
      4 N         139.2611  137.9185  163.1842 N.ar    1  UNL1       -0.0391
      5 C         138.5905  139.0299  163.9359 C.ar    1  UNL1        0.2426
      6 C         138.6708  139.2683  165.4146 C.2     1  UNL1        0.3943
      7 N         137.7289  138.5578  166.3411 N.2     1  UNL1        0.1539
      8 O         137.8093  138.7962  167.8199 O.2     1  UNL1       -0.3110
      9 H         137.2210  138.3524  168.3986 H       1  UNL1        0.3605
     10 N         139.6929  140.2170  165.9669 N.pl3   1  UNL1       -0.1942
     11 H         139.4145  140.9452  166.5682 H       1  UNL1        0.2987
     12 C         141.1393  140.0564  165.6032 C.ar    1  UNL1        0.1364
     13 C         141.7983  138.7143  165.7237 C.ar    1  UNL1        0.0425
     14 C         143.2446  138.5537  165.3600 C.ar    1  UNL1        0.0336
     15 C         144.0319  139.7350  164.8758 C.ar    1  UNL1        0.1465
     16 F         145.4783  139.5743  164.5120 F       1  UNL1       -0.2036
     17 C         143.3729  141.0771  164.7552 C.ar    1  UNL1        0.0654
     18 BR        144.1602  142.2585  164.2710 Br      1  UNL1       -0.0465
     19 C         141.9266  141.2378  165.1190 C.ar    1  UNL1        0.0491
     20 N         137.0062  141.0766  163.2678 N.pl3   1  UNL1       -0.3127
     21 H         136.0232  141.0233  163.2613 H       1  UNL1        0.1484
     22 C         137.6848  142.3733  163.5965 C.3     1  UNL1        0.1074
     23 C         138.5632  143.0391  162.5792 C.3     1  UNL1        0.1137
     24 N         138.3399  144.4790  162.2228 N.3     1  UNL1       -0.1679
     25 H         138.0438  144.4983  161.2469 H       1  UNL1        0.1499
     26 N         140.5818  146.4548  162.4869 N.3     1  UNL1       -0.1934
     27 S         139.4609  145.4669  162.3548 S.O2    1  UNL1        0.0927
     28 O         139.5441  145.1761  163.8240 O.2     1  UNL1       -0.1415
     29 O         139.3777  145.7576  160.8856 O.2     1  UNL1       -0.1415
     30 H         140.8893  146.4923  163.4587 H       1  UNL1        0.1453
     31 H         140.2578  147.3775  162.1969 H       1  UNL1        0.1453
@<TRIPOS>BOND
     1    26    27    1
     2    27    28    2
     3    27    29    2
     4    27    24    1
     5    24    23    1
     6    23    22    1
     7    22    20    1
     8    20     1    1
     9     1     2   ar
    10     2     3   ar
    11     3     4   ar
    12     4     5   ar
    13     5     6    1
    14     6     7    2
    15     7     8    1
    16     6    10    1
    17    10    12    1
    18    12    13   ar
    19    13    14   ar
    20    14    15   ar
    21    15    16    1
    22    15    17   ar
    23    17    18    1
    24    17    19   ar
    25     5     1   ar
    26    19    12   ar
    27    26    30    1
    28    26    31    1
    29    24    25    1
    30    20    21    1
    31     8     9    1
    32    10    11    1
@<TRIPOS>MOLECULE
*****
 31 32 0 0 0
SMALL
GASTEIGER

@<TRIPOS>ATOM
      1 C         139.3032  143.2245  160.9725 C.ar    1  UNL1        0.1986
      2 N         139.5209  144.7085  160.9921 N.ar    1  UNL1       -0.0331
      3 O         138.5633  145.3044  161.9810 O.2     1  UNL1       -0.2400
      4 N         137.7538  144.1887  162.5725 N.ar    1  UNL1       -0.0391
      5 C         138.2111  142.9032  161.9492 C.ar    1  UNL1        0.2426
      6 C         137.6711  141.5365  162.2499 C.2     1  UNL1        0.3943
      7 N         137.6793  140.4766  161.1884 N.2     1  UNL1        0.1539
      8 O         137.1393  139.1098  161.4890 O.2     1  UNL1       -0.3110
      9 H         137.1444  138.4478  160.8260 H       1  UNL1        0.3605
     10 N         137.1229  141.2295  163.6119 N.pl3   1  UNL1       -0.1942
     11 H         136.1525  141.2712  163.7729 H       1  UNL1        0.2987
     12 C         138.0532  140.8592  164.7288 C.ar    1  UNL1        0.1364
     13 C         138.0397  139.4664  165.2854 C.ar    1  UNL1        0.0425
     14 C         138.9700  139.0960  166.4023 C.ar    1  UNL1        0.0336
     15 C         139.9137  140.1184  166.9626 C.ar    1  UNL1        0.1465
     16 F         140.8439  139.7481  168.0795 F       1  UNL1       -0.2036
     17 C         139.9271  141.5114  166.4061 C.ar    1  UNL1        0.0654
     18 BR        140.8708  142.5338  166.9664 Br      1  UNL1       -0.0465
     19 C         138.9969  141.8817  165.2892 C.ar    1  UNL1        0.0491
     20 N         140.0471  142.2354  160.1249 N.pl3   1  UNL1       -0.3127
     21 H         139.7570  142.0634  159.2000 H       1  UNL1        0.1484
     22 C         141.2329  141.5086  160.6865 C.3     1  UNL1        0.1074
     23 C         141.2432  141.0903  162.1269 C.3     1  UNL1        0.1137
     24 N         140.6379  139.7788  162.5315 N.3     1  UNL1       -0.1679
     25 H         140.5688  139.7878  163.5491 H       1  UNL1        0.1499
     26 N         141.9877  137.2078  161.7779 N.3     1  UNL1       -0.1934
     27 S         141.3128  138.4933  162.1547 S.O2    1  UNL1        0.0927
     28 O         140.0583  138.0348  161.4719 O.2     1  UNL1       -0.1415
     29 O         142.5673  138.9518  162.8374 O.2     1  UNL1       -0.1415
     30 H         141.3364  136.6225  161.2547 H       1  UNL1        0.1453
     31 H         142.2819  136.7179  162.6227 H       1  UNL1        0.1453
@<TRIPOS>BOND
     1    26    27    1
     2    27    28    2
     3    27    29    2
     4    27    24    1
     5    24    23    1
     6    23    22    1
     7    22    20    1
     8    20     1    1
     9     1     2   ar
    10     2     3   ar
    11     3     4   ar
    12     4     5   ar
    13     5     6    1
    14     6     7    2
    15     7     8    1
    16     6    10    1
    17    10    12    1
    18    12    13   ar
    19    13    14   ar
    20    14    15   ar
    21    15    16    1
    22    15    17   ar
    23    17    18    1
    24    17    19   ar
    25     5     1   ar
    26    19    12   ar
    27    26    30    1
    28    26    31    1
    29    24    25    1
    30    20    21    1
    31     8     9    1
    32    10    11    1
