@<TRIPOS>MOLECULE
*****
 39 43 0 0 0
SMALL
GASTEIGER

@<TRIPOS>ATOM
      1 C         142.2763  138.6832  162.1017 C.3     1  UNL1        0.0758
      2 C         140.9291  138.5383  161.4583 C.3     1  UNL1        0.0370
      3 C         140.8219  138.3756  159.9710 C.3     1  UNL1        0.0741
      4 N         142.0618  138.3578  159.1271 N.3     1  UNL1       -0.2688
      5 C         143.4091  138.5027  159.7706 C.3     1  UNL1        0.0741
      6 C         143.5163  138.6654  161.2579 C.3     1  UNL1        0.0370
      7 C         142.8625  140.8693  170.1408 C.3     1  UNL1        0.0897
      8 N         142.7553  140.7066  168.6535 N.3     1  UNL1       -0.2683
      9 C         142.7052  139.3340  168.0509 C.3     1  UNL1        0.0940
     10 C         142.5980  139.1713  166.5636 C.3     1  UNL1        0.1125
     11 N         142.5408  140.3813  165.6790 N.am    1  UNL1       -0.2593
     12 C         142.4336  140.2186  164.1917 C.2     1  UNL1        0.3042
     13 O         142.3764  141.4286  163.3070 O.2     1  UNL1       -0.2526
     14 N         142.3835  138.8459  163.5890 N.am    1  UNL1       -0.2903
     15 C         142.5909  141.7539  166.2816 C.3     1  UNL1        0.1153
     16 C         142.6981  141.9166  167.7689 C.3     1  UNL1        0.0969
     17 H         142.4211  138.0517  164.1696 H       1  UNL1        0.1509
     18 C         142.5337  142.9640  165.3970 C.ar    1  UNL1       -0.0029
     19 C         141.2070  143.5295  164.9845 C.ar    1  UNL1       -0.0026
     20 C         141.1498  144.7396  164.0999 C.ar    1  UNL1       -0.0003
     21 C         142.4193  145.3841  163.6277 C.ar    1  UNL1       -0.0000
     22 C         143.7460  144.8185  164.0402 C.ar    1  UNL1       -0.0003
     23 C         143.8032  143.6085  164.9248 C.ar    1  UNL1       -0.0026
     24 C         141.9546  138.1952  157.6399 C.3     1  UNL1        0.1007
     25 C         142.7216  137.1081  156.9470 C.ar    1  UNL1        0.0129
     26 C         143.6037  137.2794  155.7460 C.ar    1  UNL1        0.0176
     27 C         144.1684  135.9361  155.3903 C.ar    1  UNL1        0.0799
     28 N         143.6353  134.9346  156.3716 N.ar    1  UNL1       -0.3038
     29 C         142.7411  135.6590  157.3337 C.ar    1  UNL1        0.0772
     30 C         143.9425  133.4664  156.3879 C.ar    1  UNL1        0.0640
     31 C         144.5646  132.8438  157.6025 C.ar    1  UNL1        0.0175
     32 C         144.8718  131.3756  157.6187 C.ar    1  UNL1        0.0053
     33 C         144.5569  130.5301  156.4204 C.ar    1  UNL1        0.0715
     34 C         143.9348  131.1528  155.2057 C.ar    1  UNL1        0.0053
     35 C         143.6276  132.6209  155.1895 C.ar    1  UNL1        0.0175
     36 C         144.8640  129.0621  156.4367 C.3     1  UNL1        0.4186
     37 F         145.1712  127.5940  156.4530 F       1  UNL1       -0.1659
     38 F         144.4336  128.9879  157.8716 F       1  UNL1       -0.1659
     39 F         145.2946  129.1363  155.0017 F       1  UNL1       -0.1659
@<TRIPOS>BOND
     1     7     8    1
     2     8     9    1
     3     9    10    1
     4    10    11    1
     5    11    12   am
     6    12    13    2
     7    12    14   am
     8    14     1    1
     9     1     2    1
    10     2     3    1
    11     3     4    1
    12     4    24    1
    13    24    25    1
    14    25    26   ar
    15    26    27   ar
    16    27    28   ar
    17    28    30    1
    18    30    31   ar
    19    31    32   ar
    20    32    33   ar
    21    33    36    1
    22    36    37    1
    23    36    38    1
    24    36    39    1
    25    33    34   ar
    26    34    35   ar
    27    28    29   ar
    28     4     5    1
    29     5     6    1
    30    11    15    1
    31    15    18    1
    32    18    19   ar
    33    19    20   ar
    34    20    21   ar
    35    21    22   ar
    36    22    23   ar
    37    15    16    1
    38    16     8    1
    39     6     1    1
    40    23    18   ar
    41    29    25   ar
    42    35    30   ar
    43    14    17    1
@<TRIPOS>MOLECULE
*****
 39 43 0 0 0
SMALL
GASTEIGER

@<TRIPOS>ATOM
      1 C         141.1271  138.9557  161.6798 C.3     1  UNL1        0.0758
      2 C         140.1913  139.3685  160.5826 C.3     1  UNL1        0.0370
      3 C         140.5912  139.1877  159.1482 C.3     1  UNL1        0.0741
      4 N         141.9268  138.5941  158.8111 N.3     1  UNL1       -0.2688
      5 C         142.8626  138.1812  159.9083 C.3     1  UNL1        0.0741
      6 C         142.4628  138.3620  161.3427 C.3     1  UNL1        0.0370
      7 C         139.5159  141.1083  169.5868 C.3     1  UNL1        0.0897
      8 N         139.9158  140.9275  168.1524 N.3     1  UNL1       -0.2683
      9 C         139.5277  139.6789  167.4173 C.3     1  UNL1        0.0940
     10 C         139.9275  139.4981  165.9829 C.3     1  UNL1        0.1125
     11 N         140.7155  140.5659  165.2837 N.am    1  UNL1       -0.2593
     12 C         141.1153  140.3851  163.8493 C.2     1  UNL1        0.3042
     13 O         141.9033  141.4528  163.1501 O.2     1  UNL1       -0.2526
     14 N         140.7272  139.1365  163.1142 N.am    1  UNL1       -0.2903
     15 C         141.1036  141.8144  166.0188 C.3     1  UNL1        0.1153
     16 C         140.7037  141.9952  167.4532 C.3     1  UNL1        0.0969
     17 H         140.2100  138.4357  163.5731 H       1  UNL1        0.1509
     18 C         141.8916  142.8822  165.3196 C.ar    1  UNL1       -0.0029
     19 C         143.3900  142.8736  165.3861 C.ar    1  UNL1       -0.0026
     20 C         144.1780  143.9414  164.6868 C.ar    1  UNL1       -0.0003
     21 C         143.4675  145.0179  163.9211 C.ar    1  UNL1       -0.0000
     22 C         141.9689  145.0265  163.8546 C.ar    1  UNL1       -0.0003
     23 C         141.1810  143.9587  164.5538 C.ar    1  UNL1       -0.0026
     24 C         142.3266  138.4133  157.3767 C.3     1  UNL1        0.1007
     25 C         142.1382  137.0842  156.7074 C.ar    1  UNL1        0.0129
     26 C         140.9507  136.6689  155.8905 C.ar    1  UNL1        0.0176
     27 C         141.1827  135.2651  155.4157 C.ar    1  UNL1        0.0799
     28 N         142.5137  134.8128  155.9392 N.ar    1  UNL1       -0.3038
     29 C         143.1042  135.9371  156.7375 C.ar    1  UNL1        0.0772
     30 C         143.1436  133.4716  155.7054 C.ar    1  UNL1        0.0640
     31 C         142.7537  132.6587  154.5066 C.ar    1  UNL1        0.0175
     32 C         143.3836  131.3176  154.2728 C.ar    1  UNL1        0.0053
     33 C         144.4033  130.7894  155.2378 C.ar    1  UNL1        0.0715
     34 C         144.7932  131.6023  156.4366 C.ar    1  UNL1        0.0053
     35 C         144.1633  132.9434  156.6703 C.ar    1  UNL1        0.0175
     36 C         145.0331  129.4483  155.0040 C.3     1  UNL1        0.4186
     37 F         145.6630  128.1072  154.7702 F       1  UNL1       -0.1659
     38 F         145.0700  129.7225  153.5298 F       1  UNL1       -0.1659
     39 F         144.9963  129.1740  156.4782 F       1  UNL1       -0.1659
@<TRIPOS>BOND
     1     7     8    1
     2     8     9    1
     3     9    10    1
     4    10    11    1
     5    11    12   am
     6    12    13    2
     7    12    14   am
     8    14     1    1
     9     1     2    1
    10     2     3    1
    11     3     4    1
    12     4    24    1
    13    24    25    1
    14    25    26   ar
    15    26    27   ar
    16    27    28   ar
    17    28    30    1
    18    30    31   ar
    19    31    32   ar
    20    32    33   ar
    21    33    36    1
    22    36    37    1
    23    36    38    1
    24    36    39    1
    25    33    34   ar
    26    34    35   ar
    27    28    29   ar
    28     4     5    1
    29     5     6    1
    30    11    15    1
    31    15    18    1
    32    18    19   ar
    33    19    20   ar
    34    20    21   ar
    35    21    22   ar
    36    22    23   ar
    37    15    16    1
    38    16     8    1
    39     6     1    1
    40    23    18   ar
    41    29    25   ar
    42    35    30   ar
    43    14    17    1
@<TRIPOS>MOLECULE
*****
 39 43 0 0 0
SMALL
GASTEIGER

@<TRIPOS>ATOM
      1 C         142.5316  139.0775  162.1193 C.3     1  UNL1        0.0758
      2 C         141.3547  138.5044  161.3870 C.3     1  UNL1        0.0370
      3 C         141.3901  138.3780  159.8927 C.3     1  UNL1        0.0741
      4 N         142.6024  138.8248  159.1308 N.3     1  UNL1       -0.2688
      5 C         143.7794  139.3980  159.8631 C.3     1  UNL1        0.0741
      6 C         143.7440  139.5244  161.3573 C.3     1  UNL1        0.0370
      7 C         141.4776  140.7413  170.2354 C.3     1  UNL1        0.0897
      8 N         141.5130  140.6149  168.7411 N.3     1  UNL1       -0.2683
      9 C         142.3900  139.5830  168.0963 C.3     1  UNL1        0.0940
     10 C         142.4254  139.4566  166.6020 C.3     1  UNL1        0.1125
     11 N         141.5838  140.3622  165.7526 N.am    1  UNL1       -0.2593
     12 C         141.6192  140.2358  164.2584 C.2     1  UNL1        0.3042
     13 O         140.7775  141.1414  163.4090 O.2     1  UNL1       -0.2526
     14 N         142.4962  139.2039  163.6135 N.am    1  UNL1       -0.2903
     15 C         140.7067  141.3941  166.3975 C.3     1  UNL1        0.1153
     16 C         140.6713  141.5205  167.8917 C.3     1  UNL1        0.0969
     17 H         143.0486  138.6095  164.1710 H       1  UNL1        0.1509
     18 C         139.8650  142.2998  165.5480 C.ar    1  UNL1       -0.0029
     19 C         140.3530  143.6768  165.2082 C.ar    1  UNL1       -0.0026
     20 C         139.5113  144.5824  164.3588 C.ar    1  UNL1       -0.0003
     21 C         138.1816  144.1109  163.8492 C.ar    1  UNL1       -0.0000
     22 C         137.6936  142.7338  164.1892 C.ar    1  UNL1       -0.0003
     23 C         138.5353  141.8283  165.0385 C.ar    1  UNL1       -0.0026
     24 C         142.6378  138.6984  157.6365 C.3     1  UNL1        0.1007
     25 C         143.0459  137.4015  157.0030 C.ar    1  UNL1        0.0129
     26 C         143.5582  137.2263  155.6041 C.ar    1  UNL1        0.0176
     27 C         143.8422  135.7685  155.3936 C.ar    1  UNL1        0.0799
     28 N         143.5053  135.0428  156.6625 N.ar    1  UNL1       -0.3038
     29 C         143.0132  136.0520  157.6571 C.ar    1  UNL1        0.0772
     30 C         143.6375  133.5669  156.8958 C.ar    1  UNL1        0.0640
     31 C         144.7584  133.0386  157.7409 C.ar    1  UNL1        0.0175
     32 C         144.8906  131.5627  157.9742 C.ar    1  UNL1        0.0053
     33 C         143.9018  130.6152  157.3623 C.ar    1  UNL1        0.0715
     34 C         142.7807  131.1435  156.5171 C.ar    1  UNL1        0.0053
     35 C         142.6487  132.6194  156.2839 C.ar    1  UNL1        0.0175
     36 C         144.0339  129.1394  157.5955 C.3     1  UNL1        0.4186
     37 F         144.1661  127.6636  157.8288 F       1  UNL1       -0.1659
     38 F         145.0130  129.4017  158.7011 F       1  UNL1       -0.1659
     39 F         143.0548  128.8770  156.4898 F       1  UNL1       -0.1659
@<TRIPOS>BOND
     1     7     8    1
     2     8     9    1
     3     9    10    1
     4    10    11    1
     5    11    12   am
     6    12    13    2
     7    12    14   am
     8    14     1    1
     9     1     2    1
    10     2     3    1
    11     3     4    1
    12     4    24    1
    13    24    25    1
    14    25    26   ar
    15    26    27   ar
    16    27    28   ar
    17    28    30    1
    18    30    31   ar
    19    31    32   ar
    20    32    33   ar
    21    33    36    1
    22    36    37    1
    23    36    38    1
    24    36    39    1
    25    33    34   ar
    26    34    35   ar
    27    28    29   ar
    28     4     5    1
    29     5     6    1
    30    11    15    1
    31    15    18    1
    32    18    19   ar
    33    19    20   ar
    34    20    21   ar
    35    21    22   ar
    36    22    23   ar
    37    15    16    1
    38    16     8    1
    39     6     1    1
    40    23    18   ar
    41    29    25   ar
    42    35    30   ar
    43    14    17    1
@<TRIPOS>MOLECULE
*****
 39 43 0 0 0
SMALL
GASTEIGER

@<TRIPOS>ATOM
      1 C         142.5655  139.1475  162.0975 C.3     1  UNL1        0.0758
      2 C         141.4342  138.4505  161.4017 C.3     1  UNL1        0.0370
      3 C         141.4163  138.3601  159.9046 C.3     1  UNL1        0.0741
      4 N         142.5297  138.9667  159.1032 N.3     1  UNL1       -0.2688
      5 C         143.6612  139.6637  159.7990 C.3     1  UNL1        0.0741
      6 C         143.6791  139.7541  161.2961 C.3     1  UNL1        0.0370
      7 C         141.7603  140.5768  170.2864 C.3     1  UNL1        0.0897
      8 N         141.7424  140.4864  168.7893 N.3     1  UNL1       -0.2683
      9 C         142.6372  139.5092  168.0862 C.3     1  UNL1        0.0940
     10 C         142.6193  139.4188  166.5890 C.3     1  UNL1        0.1125
     11 N         141.7066  140.3056  165.7949 N.am    1  UNL1       -0.2593
     12 C         141.6887  140.2151  164.2978 C.2     1  UNL1        0.3042
     13 O         140.7760  141.1019  163.5037 O.2     1  UNL1       -0.2526
     14 N         142.5835  139.2379  163.5947 N.am    1  UNL1       -0.2903
     15 C         140.8118  141.2828  166.4980 C.3     1  UNL1        0.1153
     16 C         140.8297  141.3732  167.9952 C.3     1  UNL1        0.0969
     17 H         143.1825  138.6559  164.1158 H       1  UNL1        0.1509
     18 C         139.8990  142.1696  165.7040 C.ar    1  UNL1       -0.0029
     19 C         138.6012  141.6318  165.1783 C.ar    1  UNL1       -0.0026
     20 C         137.6885  142.5186  164.3842 C.ar    1  UNL1       -0.0003
     21 C         138.0736  143.9433  164.1159 C.ar    1  UNL1       -0.0000
     22 C         139.3715  144.4811  164.6416 C.ar    1  UNL1       -0.0003
     23 C         140.2842  143.5943  165.4356 C.ar    1  UNL1       -0.0026
     24 C         142.5118  138.8762  157.6060 C.3     1  UNL1        0.1007
     25 C         142.2866  137.5527  156.9372 C.ar    1  UNL1        0.0129
     26 C         141.1001  137.1789  156.0990 C.ar    1  UNL1        0.0176
     27 C         141.2885  135.7657  155.6329 C.ar    1  UNL1        0.0799
     28 N         142.5914  135.2660  156.1832 N.ar    1  UNL1       -0.3038
     29 C         143.2082  136.3704  156.9893 C.ar    1  UNL1        0.0772
     30 C         143.1750  133.9014  155.9655 C.ar    1  UNL1        0.0640
     31 C         142.7927  133.1070  154.7520 C.ar    1  UNL1        0.0175
     32 C         143.3763  131.7424  154.5343 C.ar    1  UNL1        0.0053
     33 C         144.3423  131.1722  155.5302 C.ar    1  UNL1        0.0715
     34 C         144.7246  131.9666  156.7439 C.ar    1  UNL1        0.0053
     35 C         144.1410  133.3312  156.9614 C.ar    1  UNL1        0.0175
     36 C         144.9258  129.8077  155.3126 C.3     1  UNL1        0.4186
     37 F         145.5094  128.4431  155.0949 F       1  UNL1       -0.1659
     38 F         144.9072  130.0361  153.8303 F       1  UNL1       -0.1659
     39 F         144.9445  129.5792  156.7950 F       1  UNL1       -0.1659
@<TRIPOS>BOND
     1     7     8    1
     2     8     9    1
     3     9    10    1
     4    10    11    1
     5    11    12   am
     6    12    13    2
     7    12    14   am
     8    14     1    1
     9     1     2    1
    10     2     3    1
    11     3     4    1
    12     4    24    1
    13    24    25    1
    14    25    26   ar
    15    26    27   ar
    16    27    28   ar
    17    28    30    1
    18    30    31   ar
    19    31    32   ar
    20    32    33   ar
    21    33    36    1
    22    36    37    1
    23    36    38    1
    24    36    39    1
    25    33    34   ar
    26    34    35   ar
    27    28    29   ar
    28     4     5    1
    29     5     6    1
    30    11    15    1
    31    15    18    1
    32    18    19   ar
    33    19    20   ar
    34    20    21   ar
    35    21    22   ar
    36    22    23   ar
    37    15    16    1
    38    16     8    1
    39     6     1    1
    40    23    18   ar
    41    29    25   ar
    42    35    30   ar
    43    14    17    1
@<TRIPOS>MOLECULE
*****
 39 43 0 0 0
SMALL
GASTEIGER

@<TRIPOS>ATOM
      1 C         139.0898  140.7654  161.7750 C.3     1  UNL1        0.0758
      2 C         139.5043  139.6740  160.8332 C.3     1  UNL1        0.0370
      3 C         139.4185  139.8895  159.3512 C.3     1  UNL1        0.0741
      4 N         138.9180  141.1964  158.8111 N.3     1  UNL1       -0.2688
      5 C         138.5034  142.2878  159.7530 C.3     1  UNL1        0.0741
      6 C         138.5893  142.0723  161.2349 C.3     1  UNL1        0.0370
      7 C         140.8382  139.8192  169.8866 C.3     1  UNL1        0.0897
      8 N         140.7523  140.0347  168.4046 N.3     1  UNL1       -0.2683
      9 C         139.4332  139.9034  167.7028 C.3     1  UNL1        0.0940
     10 C         139.3473  140.1189  166.2209 C.3     1  UNL1        0.1125
     11 N         140.5806  140.4657  165.4407 N.am    1  UNL1       -0.2593
     12 C         140.4948  140.6812  163.9588 C.2     1  UNL1        0.3042
     13 O         141.7280  141.0280  163.1786 O.2     1  UNL1       -0.2526
     14 N         139.1756  140.5499  163.2570 N.am    1  UNL1       -0.2903
     15 C         141.8998  140.5970  166.1425 C.3     1  UNL1        0.1153
     16 C         141.9856  140.3815  167.6245 C.3     1  UNL1        0.0969
     17 H         138.3661  140.3222  163.7690 H       1  UNL1        0.1509
     18 C         143.1331  140.9438  165.3624 C.ar    1  UNL1       -0.0029
     19 C         143.9729  139.8547  164.7637 C.ar    1  UNL1       -0.0026
     20 C         145.2063  140.2015  163.9835 C.ar    1  UNL1       -0.0003
     21 C         145.5998  141.6375  163.8021 C.ar    1  UNL1       -0.0000
     22 C         144.7600  142.7267  164.4008 C.ar    1  UNL1       -0.0003
     23 C         143.5267  142.3799  165.1809 C.ar    1  UNL1       -0.0026
     24 C         138.8322  141.4119  157.3291 C.3     1  UNL1        0.1007
     25 C         137.4996  141.3733  156.6416 C.ar    1  UNL1        0.0129
     26 C         137.1732  141.9943  155.3158 C.ar    1  UNL1        0.0176
     27 C         135.7314  141.7118  155.0139 C.ar    1  UNL1        0.0799
     28 N         135.1666  140.9161  156.1533 N.ar    1  UNL1       -0.3038
     29 C         136.2595  140.7069  157.1592 C.ar    1  UNL1        0.0772
     30 C         133.7565  140.4172  156.2667 C.ar    1  UNL1        0.0640
     31 C         133.4782  139.0987  156.9254 C.ar    1  UNL1        0.0175
     32 C         132.0681  138.5998  157.0388 C.ar    1  UNL1        0.0053
     33 C         130.9364  139.4194  156.4935 C.ar    1  UNL1        0.0715
     34 C         131.2147  140.7380  155.8348 C.ar    1  UNL1        0.0053
     35 C         132.6248  141.2368  155.7214 C.ar    1  UNL1        0.0175
     36 C         129.5264  138.9205  156.6070 C.3     1  UNL1        0.4186
     37 F         128.1164  138.4216  156.7204 F       1  UNL1       -0.1659
     38 F         129.2071  140.0383  157.5548 F       1  UNL1       -0.1659
     39 F         129.8457  137.8026  155.6591 F       1  UNL1       -0.1659
@<TRIPOS>BOND
     1     7     8    1
     2     8     9    1
     3     9    10    1
     4    10    11    1
     5    11    12   am
     6    12    13    2
     7    12    14   am
     8    14     1    1
     9     1     2    1
    10     2     3    1
    11     3     4    1
    12     4    24    1
    13    24    25    1
    14    25    26   ar
    15    26    27   ar
    16    27    28   ar
    17    28    30    1
    18    30    31   ar
    19    31    32   ar
    20    32    33   ar
    21    33    36    1
    22    36    37    1
    23    36    38    1
    24    36    39    1
    25    33    34   ar
    26    34    35   ar
    27    28    29   ar
    28     4     5    1
    29     5     6    1
    30    11    15    1
    31    15    18    1
    32    18    19   ar
    33    19    20   ar
    34    20    21   ar
    35    21    22   ar
    36    22    23   ar
    37    15    16    1
    38    16     8    1
    39     6     1    1
    40    23    18   ar
    41    29    25   ar
    42    35    30   ar
    43    14    17    1
@<TRIPOS>MOLECULE
*****
 39 43 0 0 0
SMALL
GASTEIGER

@<TRIPOS>ATOM
      1 C         141.6498  138.9233  160.0333 C.3     1  UNL1        0.0758
      2 C         140.1670  139.1445  160.0835 C.3     1  UNL1        0.0370
      3 C         139.3685  138.6154  161.2378 C.3     1  UNL1        0.0741
      4 N         140.0526  137.8653  162.3419 N.3     1  UNL1       -0.2688
      5 C         141.5354  137.6441  162.2918 C.3     1  UNL1        0.0741
      6 C         142.3340  138.1732  161.1375 C.3     1  UNL1        0.0370
      7 C         145.8641  140.7143  153.0489 C.3     1  UNL1        0.0897
      8 N         145.0655  140.1853  154.2032 N.3     1  UNL1       -0.2683
      9 C         144.8441  141.0395  155.4162 C.3     1  UNL1        0.0940
     10 C         144.0455  140.5104  156.5705 C.3     1  UNL1        0.1125
     11 N         143.4683  139.1272  156.5118 N.am    1  UNL1       -0.2593
     12 C         142.6697  138.5982  157.6661 C.2     1  UNL1        0.3042
     13 O         142.0925  137.2150  157.6074 O.2     1  UNL1       -0.2526
     14 N         142.4484  139.4524  158.8791 N.am    1  UNL1       -0.2903
     15 C         143.6897  138.2730  155.2988 C.3     1  UNL1        0.1153
     16 C         144.4883  138.8021  154.1446 C.3     1  UNL1        0.0969
     17 H         142.8272  140.3602  158.9176 H       1  UNL1        0.1509
     18 C         143.1125  136.8897  155.2401 C.ar    1  UNL1       -0.0029
     19 C         141.7202  136.6794  154.7232 C.ar    1  UNL1       -0.0026
     20 C         141.1429  135.2961  154.6645 C.ar    1  UNL1       -0.0003
     21 C         141.9581  134.1232  155.1227 C.ar    1  UNL1       -0.0000
     22 C         143.3504  134.3336  155.6396 C.ar    1  UNL1       -0.0003
     23 C         143.9276  135.7169  155.6983 C.ar    1  UNL1       -0.0026
     24 C         139.2540  137.3362  163.4962 C.3     1  UNL1        0.1007
     25 C         139.2449  138.0735  164.8024 C.ar    1  UNL1        0.0129
     26 C         138.1237  138.0883  165.7988 C.ar    1  UNL1        0.0176
     27 C         138.5412  138.9494  166.9538 C.ar    1  UNL1        0.0799
     28 N         139.9206  139.4668  166.6713 N.ar    1  UNL1       -0.3038
     29 C         140.3555  138.9255  165.3417 C.ar    1  UNL1        0.0772
     30 C         140.7240  140.3674  167.5621 C.ar    1  UNL1        0.0640
     31 C         140.3802  141.8240  167.6625 C.ar    1  UNL1        0.0175
     32 C         141.1836  142.7246  168.5533 C.ar    1  UNL1        0.0053
     33 C         142.3308  142.1686  169.3437 C.ar    1  UNL1        0.0715
     34 C         142.6747  140.7120  169.2433 C.ar    1  UNL1        0.0053
     35 C         141.8712  139.8114  168.3525 C.ar    1  UNL1        0.0175
     36 C         143.1342  143.0692  170.2344 C.3     1  UNL1        0.4186
     37 F         143.9376  143.9698  171.1251 F       1  UNL1       -0.1659
     38 F         141.9491  143.9759  170.3866 F       1  UNL1       -0.1659
     39 F         144.3194  142.1624  170.0822 F       1  UNL1       -0.1659
@<TRIPOS>BOND
     1     7     8    1
     2     8     9    1
     3     9    10    1
     4    10    11    1
     5    11    12   am
     6    12    13    2
     7    12    14   am
     8    14     1    1
     9     1     2    1
    10     2     3    1
    11     3     4    1
    12     4    24    1
    13    24    25    1
    14    25    26   ar
    15    26    27   ar
    16    27    28   ar
    17    28    30    1
    18    30    31   ar
    19    31    32   ar
    20    32    33   ar
    21    33    36    1
    22    36    37    1
    23    36    38    1
    24    36    39    1
    25    33    34   ar
    26    34    35   ar
    27    28    29   ar
    28     4     5    1
    29     5     6    1
    30    11    15    1
    31    15    18    1
    32    18    19   ar
    33    19    20   ar
    34    20    21   ar
    35    21    22   ar
    36    22    23   ar
    37    15    16    1
    38    16     8    1
    39     6     1    1
    40    23    18   ar
    41    29    25   ar
    42    35    30   ar
    43    14    17    1
@<TRIPOS>MOLECULE
*****
 39 43 0 0 0
SMALL
GASTEIGER

@<TRIPOS>ATOM
      1 C         138.8985  140.8448  162.2164 C.3     1  UNL1        0.0758
      2 C         138.9585  139.6652  161.2919 C.3     1  UNL1        0.0370
      3 C         138.7922  139.8612  159.8141 C.3     1  UNL1        0.0741
      4 N         138.5660  141.2370  159.2608 N.3     1  UNL1       -0.2688
      5 C         138.5060  142.4167  160.1853 C.3     1  UNL1        0.0741
      6 C         138.6723  142.2206  161.6632 C.3     1  UNL1        0.0370
      7 C         141.0952  139.9354  170.2225 C.3     1  UNL1        0.0897
      8 N         140.9289  140.1315  168.7447 N.3     1  UNL1       -0.2683
      9 C         139.5636  140.0605  168.1276 C.3     1  UNL1        0.0940
     10 C         139.3973  140.2566  166.6498 C.3     1  UNL1        0.1125
     11 N         140.5964  140.5236  165.7891 N.am    1  UNL1       -0.2593
     12 C         140.4301  140.7197  164.3113 C.2     1  UNL1        0.3042
     13 O         141.6291  140.9868  163.4506 O.2     1  UNL1       -0.2526
     14 N         139.0648  140.6487  163.6942 N.am    1  UNL1       -0.2903
     15 C         141.9617  140.5946  166.4062 C.3     1  UNL1        0.1153
     16 C         142.1279  140.3985  167.8840 C.3     1  UNL1        0.0969
     17 H         138.2778  140.4735  164.2592 H       1  UNL1        0.1509
     18 C         143.1608  140.8617  165.5454 C.ar    1  UNL1       -0.0029
     19 C         143.9013  139.7194  164.9155 C.ar    1  UNL1       -0.0026
     20 C         145.1004  139.9864  164.0548 C.ar    1  UNL1       -0.0003
     21 C         145.5590  141.3958  163.8240 C.ar    1  UNL1       -0.0000
     22 C         144.8185  142.5382  164.4540 C.ar    1  UNL1       -0.0003
     23 C         143.6195  142.2711  165.3147 C.ar    1  UNL1       -0.0026
     24 C         138.3997  141.4330  157.7830 C.3     1  UNL1        0.1007
     25 C         139.2222  142.4621  157.0657 C.ar    1  UNL1        0.0129
     26 C         140.6689  142.3306  156.6921 C.ar    1  UNL1        0.0176
     27 C         141.0832  143.5906  155.9916 C.ar    1  UNL1        0.0799
     28 N         139.8924  144.5009  155.9323 N.ar    1  UNL1       -0.3038
     29 C         138.7423  143.8034  156.5962 C.ar    1  UNL1        0.0772
     30 C         139.8579  145.8686  155.3172 C.ar    1  UNL1        0.0640
     31 C         140.6679  146.1590  154.0886 C.ar    1  UNL1        0.0175
     32 C         140.6334  147.5266  153.4734 C.ar    1  UNL1        0.0053
     33 C         139.7888  148.6038  154.0869 C.ar    1  UNL1        0.0715
     34 C         138.9787  148.3134  155.3155 C.ar    1  UNL1        0.0053
     35 C         139.0133  146.9458  155.9306 C.ar    1  UNL1        0.0175
     36 C         139.7543  149.9714  153.4717 C.3     1  UNL1        0.4186
     37 F         139.7197  151.3390  152.8566 F       1  UNL1       -0.1659
     38 F         139.6847  149.3554  152.1059 F       1  UNL1       -0.1659
     39 F         139.8238  150.5875  154.8376 F       1  UNL1       -0.1659
@<TRIPOS>BOND
     1     7     8    1
     2     8     9    1
     3     9    10    1
     4    10    11    1
     5    11    12   am
     6    12    13    2
     7    12    14   am
     8    14     1    1
     9     1     2    1
    10     2     3    1
    11     3     4    1
    12     4    24    1
    13    24    25    1
    14    25    26   ar
    15    26    27   ar
    16    27    28   ar
    17    28    30    1
    18    30    31   ar
    19    31    32   ar
    20    32    33   ar
    21    33    36    1
    22    36    37    1
    23    36    38    1
    24    36    39    1
    25    33    34   ar
    26    34    35   ar
    27    28    29   ar
    28     4     5    1
    29     5     6    1
    30    11    15    1
    31    15    18    1
    32    18    19   ar
    33    19    20   ar
    34    20    21   ar
    35    21    22   ar
    36    22    23   ar
    37    15    16    1
    38    16     8    1
    39     6     1    1
    40    23    18   ar
    41    29    25   ar
    42    35    30   ar
    43    14    17    1
@<TRIPOS>MOLECULE
*****
 39 43 0 0 0
SMALL
GASTEIGER

@<TRIPOS>ATOM
      1 C         138.1316  139.6006  159.6864 C.3     1  UNL1        0.0758
      2 C         139.3614  138.7449  159.6141 C.3     1  UNL1        0.0370
      3 C         139.8911  138.0868  160.8535 C.3     1  UNL1        0.0741
      4 N         139.1909  138.2842  162.1653 N.3     1  UNL1       -0.2688
      5 C         137.9610  139.1399  162.2376 C.3     1  UNL1        0.0741
      6 C         137.4313  139.7981  160.9982 C.3     1  UNL1        0.0370
      7 C         136.2445  144.0169  152.8537 C.3     1  UNL1        0.0897
      8 N         136.7742  143.3587  154.0931 N.3     1  UNL1       -0.2683
      9 C         136.0128  142.2333  154.7286 C.3     1  UNL1        0.0940
     10 C         136.5425  141.5752  155.9680 C.3     1  UNL1        0.1125
     11 N         137.8336  142.0424  156.5720 N.am    1  UNL1       -0.2593
     12 C         138.3632  141.3842  157.8115 C.2     1  UNL1        0.3042
     13 O         139.6543  141.8514  158.4155 O.2     1  UNL1       -0.2526
     14 N         137.6019  140.2588  158.4469 N.am    1  UNL1       -0.2903
     15 C         138.5949  143.1677  155.9366 C.3     1  UNL1        0.1153
     16 C         138.0652  143.8259  154.6972 C.3     1  UNL1        0.0969
     17 H         136.7545  139.9521  158.0505 H       1  UNL1        0.1509
     18 C         139.8860  143.6350  156.5406 C.ar    1  UNL1       -0.0029
     19 C         141.1836  143.0225  156.1035 C.ar    1  UNL1       -0.0026
     20 C         142.4747  143.4897  156.7076 C.ar    1  UNL1       -0.0003
     21 C         142.4681  144.5695  157.7487 C.ar    1  UNL1       -0.0000
     22 C         141.1705  145.1821  158.1858 C.ar    1  UNL1       -0.0003
     23 C         139.8795  144.7148  157.5818 C.ar    1  UNL1       -0.0026
     24 C         139.7206  137.6261  163.4047 C.3     1  UNL1        0.1007
     25 C         139.6399  138.3357  164.7237 C.ar    1  UNL1        0.0129
     26 C         138.4776  138.3055  165.6715 C.ar    1  UNL1        0.0176
     27 C         138.8266  139.1513  166.8601 C.ar    1  UNL1        0.0799
     28 N         140.2046  139.7043  166.6469 N.ar    1  UNL1       -0.3038
     29 C         140.7072  139.2002  165.3265 C.ar    1  UNL1        0.0772
     30 C         140.9493  140.6034  167.5887 C.ar    1  UNL1        0.0640
     31 C         140.3852  141.9463  167.9472 C.ar    1  UNL1        0.0175
     32 C         141.1298  142.8454  168.8891 C.ar    1  UNL1        0.0053
     33 C         142.4386  142.4018  169.4724 C.ar    1  UNL1        0.0715
     34 C         143.0028  141.0589  169.1138 C.ar    1  UNL1        0.0053
     35 C         142.2581  140.1598  168.1720 C.ar    1  UNL1        0.0175
     36 C         143.1832  143.3009  170.4141 C.3     1  UNL1        0.4186
     37 F         143.9278  144.2001  171.3559 F       1  UNL1       -0.1659
     38 F         141.9527  144.1415  170.5846 F       1  UNL1       -0.1659
     39 F         144.4138  142.4603  170.2437 F       1  UNL1       -0.1659
@<TRIPOS>BOND
     1     7     8    1
     2     8     9    1
     3     9    10    1
     4    10    11    1
     5    11    12   am
     6    12    13    2
     7    12    14   am
     8    14     1    1
     9     1     2    1
    10     2     3    1
    11     3     4    1
    12     4    24    1
    13    24    25    1
    14    25    26   ar
    15    26    27   ar
    16    27    28   ar
    17    28    30    1
    18    30    31   ar
    19    31    32   ar
    20    32    33   ar
    21    33    36    1
    22    36    37    1
    23    36    38    1
    24    36    39    1
    25    33    34   ar
    26    34    35   ar
    27    28    29   ar
    28     4     5    1
    29     5     6    1
    30    11    15    1
    31    15    18    1
    32    18    19   ar
    33    19    20   ar
    34    20    21   ar
    35    21    22   ar
    36    22    23   ar
    37    15    16    1
    38    16     8    1
    39     6     1    1
    40    23    18   ar
    41    29    25   ar
    42    35    30   ar
    43    14    17    1
@<TRIPOS>MOLECULE
*****
 39 43 0 0 0
SMALL
GASTEIGER

@<TRIPOS>ATOM
      1 C         139.1763  139.7200  161.9784 C.3     1  UNL1        0.0758
      2 C         139.5725  138.4741  161.2431 C.3     1  UNL1        0.0370
      3 C         139.5285  138.4419  159.7441 C.3     1  UNL1        0.0741
      4 N         139.0883  139.6555  158.9804 N.3     1  UNL1       -0.2688
      5 C         138.6921  140.9015  159.7157 C.3     1  UNL1        0.0741
      6 C         138.7360  140.9337  161.2147 C.3     1  UNL1        0.0370
      7 C         140.6880  140.1669  170.1799 C.3     1  UNL1        0.0897
      8 N         140.6441  140.1346  168.6809 N.3     1  UNL1       -0.2683
      9 C         139.3521  139.8490  167.9745 C.3     1  UNL1        0.0940
     10 C         139.3081  139.8168  166.4755 C.3     1  UNL1        0.1125
     11 N         140.5562  140.0701  165.6829 N.am    1  UNL1       -0.2593
     12 C         140.5122  140.0379  164.1839 C.2     1  UNL1        0.3042
     13 O         141.7602  140.2912  163.3914 O.2     1  UNL1       -0.2526
     14 N         139.2202  139.7523  163.4774 N.am    1  UNL1       -0.2903
     15 C         141.8481  140.3557  166.3894 C.3     1  UNL1        0.1153
     16 C         141.8921  140.3880  167.8884 C.3     1  UNL1        0.0969
     17 H         138.4011  139.5860  163.9976 H       1  UNL1        0.1509
     18 C         143.0963  140.6091  165.5968 C.ar    1  UNL1       -0.0029
     19 C         143.9133  139.4555  165.0953 C.ar    1  UNL1       -0.0026
     20 C         145.1615  139.7088  164.3027 C.ar    1  UNL1       -0.0003
     21 C         145.5925  141.1158  164.0118 C.ar    1  UNL1       -0.0000
     22 C         144.7753  142.2694  164.5134 C.ar    1  UNL1       -0.0003
     23 C         143.5273  142.0160  165.3059 C.ar    1  UNL1       -0.0026
     24 C         139.0444  139.6232  157.4814 C.3     1  UNL1        0.1007
     25 C         140.0873  138.8634  156.7167 C.ar    1  UNL1        0.0129
     26 C         140.9859  139.4249  155.6549 C.ar    1  UNL1        0.0176
     27 C         141.8688  138.3172  155.1614 C.ar    1  UNL1        0.0799
     28 N         141.5159  137.0711  155.9183 N.ar    1  UNL1       -0.3038
     29 C         140.4149  137.4087  156.8794 C.ar    1  UNL1        0.0772
     30 C         142.1522  135.7239  155.7444 C.ar    1  UNL1        0.0640
     31 C         141.6302  134.7763  154.7054 C.ar    1  UNL1        0.0175
     32 C         142.2665  133.4292  154.5316 C.ar    1  UNL1        0.0053
     33 C         143.4249  133.0296  155.3967 C.ar    1  UNL1        0.0715
     34 C         143.9470  133.9772  156.4358 C.ar    1  UNL1        0.0053
     35 C         143.3106  135.3243  156.6096 C.ar    1  UNL1        0.0175
     36 C         144.0612  131.6825  155.2229 C.3     1  UNL1        0.4186
     37 F         144.6976  130.3353  155.0490 F       1  UNL1       -0.1659
     38 F         142.9679  131.2883  154.2747 F       1  UNL1       -0.1659
     39 F         145.1547  132.0766  156.1710 F       1  UNL1       -0.1659
@<TRIPOS>BOND
     1     7     8    1
     2     8     9    1
     3     9    10    1
     4    10    11    1
     5    11    12   am
     6    12    13    2
     7    12    14   am
     8    14     1    1
     9     1     2    1
    10     2     3    1
    11     3     4    1
    12     4    24    1
    13    24    25    1
    14    25    26   ar
    15    26    27   ar
    16    27    28   ar
    17    28    30    1
    18    30    31   ar
    19    31    32   ar
    20    32    33   ar
    21    33    36    1
    22    36    37    1
    23    36    38    1
    24    36    39    1
    25    33    34   ar
    26    34    35   ar
    27    28    29   ar
    28     4     5    1
    29     5     6    1
    30    11    15    1
    31    15    18    1
    32    18    19   ar
    33    19    20   ar
    34    20    21   ar
    35    21    22   ar
    36    22    23   ar
    37    15    16    1
    38    16     8    1
    39     6     1    1
    40    23    18   ar
    41    29    25   ar
    42    35    30   ar
    43    14    17    1
