@<TRIPOS>MOLECULE
*****
 33 37 0 0 0
SMALL
GASTEIGER

@<TRIPOS>ATOM
      1 C         142.8561  141.3755  166.3236 C.2     1  UNL1        0.3056
      2 C         142.8545  142.0703  167.6529 C.3     1  UNL1        0.1439
      3 C         141.7498  141.8104  168.6338 C.2     1  UNL1        0.0029
      4 C         141.7482  142.5053  169.9631 C.2     1  UNL1        0.0146
      5 C         140.6435  142.2454  170.9439 C.2     1  UNL1        0.0886
      6 N         139.5404  141.2906  170.5954 N.am    1  UNL1       -0.1739
      7 C         139.5419  140.5957  169.2661 C.2     1  UNL1        0.2759
      8 O         138.4388  139.6409  168.9176 O.2     1  UNL1       -0.2678
      9 C         140.6466  140.8556  168.2853 C.2     1  UNL1        0.1344
     10 C         140.6482  140.1608  166.9559 C.2     1  UNL1        0.3328
     11 N         141.7529  140.4207  165.9751 N.2     1  UNL1       -0.0042
     12 N         143.9608  141.6354  165.3427 N.pl3   1  UNL1       -0.2241
     13 H         144.8348  141.1972  165.4582 H       1  UNL1        0.2918
     14 N         146.0223  141.8620  163.1751 N.3     1  UNL1       -0.3170
     15 C         144.7646  142.6761  163.1021 C.3     1  UNL1        0.1239
     16 C         144.5377  143.6036  161.9452 C.3     1  UNL1        0.1616
     17 O         143.2800  144.4178  161.8722 O.3     1  UNL1       -0.3521
     18 C         142.2492  144.3045  162.9561 C.3     1  UNL1        0.1464
     19 C         142.4762  143.3770  164.1129 C.3     1  UNL1        0.0799
     20 C         143.7339  142.5628  164.1859 C.3     1  UNL1        0.1755
     21 H         146.6049  142.0627  162.3623 H       1  UNL1        0.1190
     22 H         145.7850  140.8700  163.1868 H       1  UNL1        0.1190
     23 N         139.5451  139.2060  166.6074 N.pl3   1  UNL1       -0.2003
     24 H         139.1096  138.6776  167.3148 H       1  UNL1        0.2983
     25 C         139.1054  139.0562  165.1812 C.2     1  UNL1        0.1391
     26 C         139.2819  137.7442  164.4757 C.2     1  UNL1        0.0378
     27 C         138.8423  137.5945  163.0495 C.2     1  UNL1        0.0030
     28 C         138.2261  138.7567  162.3286 C.2     1  UNL1       -0.0018
     29 C         138.0497  140.0686  163.0340 C.2     1  UNL1        0.0089
     30 C         137.4786  141.3809  162.5848 C.2     1  UNL1        0.0182
     31 C         137.5653  142.3417  163.7335 C.2     1  UNL1        0.0937
     32 N         138.1900  141.6233  164.8926 N.2     1  UNL1       -0.2583
     33 C         138.4893  140.2184  164.4603 C.3     1  UNL1        0.1844
@<TRIPOS>BOND
     1    15    14    1
     2    15    16    1
     3    16    17    1
     4    17    18    1
     5    18    19    1
     6    19    20    1
     7    20    12    1
     8    12     1    1
     9     1     2    1
    10     2     3    1
    11     3     4    2
    12     4     5    1
    13     5     6    2
    14     6     7    1
    15     7     8    2
    16     7     9    1
    17     9    10    2
    18    10    23    1
    19    23    25    1
    20    25    26    2
    21    26    27    1
    22    27    28    2
    23    28    29    1
    24    29    30    2
    25    30    31    1
    26    31    32    2
    27    32    33    1
    28    10    11    1
    29    20    15    1
    30    11     1    2
    31     9     3    1
    32    33    25    1
    33    33    29    1
    34    14    21    1
    35    14    22    1
    36    12    13    1
    37    23    24    1
@<TRIPOS>MOLECULE
*****
 33 37 0 0 0
SMALL
GASTEIGER

@<TRIPOS>ATOM
      1 C         139.1042  140.1090  165.5750 C.2     1  UNL1        0.3056
      2 C         139.2809  140.4503  167.0249 C.3     1  UNL1        0.1439
      3 C         140.5381  140.0542  167.7409 C.2     1  UNL1        0.0029
      4 C         140.7148  140.3956  169.1908 C.2     1  UNL1        0.0146
      5 C         141.9720  139.9995  169.9067 C.2     1  UNL1        0.0886
      6 N         143.0525  139.2621  169.1727 N.am    1  UNL1       -0.1739
      7 C         142.8758  138.9207  167.7229 C.2     1  UNL1        0.2759
      8 O         143.9563  138.1833  166.9889 O.2     1  UNL1       -0.2678
      9 C         141.6186  139.3168  167.0069 C.2     1  UNL1        0.1344
     10 C         141.4419  138.9755  165.5570 C.2     1  UNL1        0.3328
     11 N         140.1847  139.3716  164.8411 N.2     1  UNL1       -0.0042
     12 N         137.8470  140.5051  164.8590 N.pl3   1  UNL1       -0.2241
     13 H         136.9896  140.0864  165.1016 H       1  UNL1        0.2918
     14 N         138.2953  139.6713  162.0124 N.3     1  UNL1       -0.3170
     15 C         138.1202  141.1222  162.3502 C.3     1  UNL1        0.1239
     16 C         138.1694  142.1563  161.2647 C.3     1  UNL1        0.1616
     17 O         137.9943  143.6072  161.6025 O.3     1  UNL1       -0.3521
     18 C         137.7702  144.0241  163.0259 C.3     1  UNL1        0.1464
     19 C         137.7211  142.9901  164.1114 C.3     1  UNL1        0.0799
     20 C         137.8961  141.5391  163.7736 C.3     1  UNL1        0.1755
     21 H         138.4361  139.5708  161.0072 H       1  UNL1        0.1190
     22 H         137.4619  139.1541  162.2923 H       1  UNL1        0.1190
     23 N         142.5224  138.2381  164.8230 N.pl3   1  UNL1       -0.2003
     24 H         142.8759  137.3938  165.1856 H       1  UNL1        0.2983
     25 C         143.0643  138.7870  163.5365 C.2     1  UNL1        0.1391
     26 C         142.7428  138.1093  162.2375 C.2     1  UNL1        0.0378
     27 C         143.2847  138.6582  160.9510 C.2     1  UNL1        0.0030
     28 C         144.1481  139.8847  160.9635 C.2     1  UNL1       -0.0018
     29 C         144.4696  140.5624  162.2625 C.2     1  UNL1        0.0089
     30 C         145.2876  141.7776  162.5851 C.2     1  UNL1        0.0182
     31 C         145.2514  141.9797  164.0710 C.2     1  UNL1        0.0937
     32 N         144.4109  140.8895  164.6667 N.2     1  UNL1       -0.2583
     33 C         143.9277  140.0135  163.5490 C.3     1  UNL1        0.1844
@<TRIPOS>BOND
     1    15    14    1
     2    15    16    1
     3    16    17    1
     4    17    18    1
     5    18    19    1
     6    19    20    1
     7    20    12    1
     8    12     1    1
     9     1     2    1
    10     2     3    1
    11     3     4    2
    12     4     5    1
    13     5     6    2
    14     6     7    1
    15     7     8    2
    16     7     9    1
    17     9    10    2
    18    10    23    1
    19    23    25    1
    20    25    26    2
    21    26    27    1
    22    27    28    2
    23    28    29    1
    24    29    30    2
    25    30    31    1
    26    31    32    2
    27    32    33    1
    28    10    11    1
    29    20    15    1
    30    11     1    2
    31     9     3    1
    32    33    25    1
    33    33    29    1
    34    14    21    1
    35    14    22    1
    36    12    13    1
    37    23    24    1
@<TRIPOS>MOLECULE
*****
 33 37 0 0 0
SMALL
GASTEIGER

@<TRIPOS>ATOM
      1 C         139.1457  140.1129  166.4526 C.2     1  UNL1        0.3056
      2 C         139.0104  139.8635  167.9255 C.3     1  UNL1        0.1439
      3 C         140.0270  140.4212  168.8771 C.2     1  UNL1        0.0029
      4 C         139.8917  140.1718  170.3500 C.2     1  UNL1        0.0146
      5 C         140.9082  140.7296  171.3016 C.2     1  UNL1        0.0886
      6 N         142.0601  141.5368  170.7802 N.am    1  UNL1       -0.1739
      7 C         142.1954  141.7862  169.3073 C.2     1  UNL1        0.2759
      8 O         143.3472  142.5933  168.7860 O.2     1  UNL1       -0.2678
      9 C         141.1788  141.2284  168.3558 C.2     1  UNL1        0.1344
     10 C         141.3141  141.4778  166.8828 C.2     1  UNL1        0.3328
     11 N         140.2975  140.9200  165.9313 N.2     1  UNL1       -0.0042
     12 N         138.1291  139.5551  165.5010 N.pl3   1  UNL1       -0.2241
     13 H         137.2050  139.4001  165.8030 H       1  UNL1        0.2918
     14 N         136.9557  141.1193  163.2259 N.3     1  UNL1       -0.3170
     15 C         137.9338  140.0156  162.9516 C.3     1  UNL1        0.1239
     16 C         138.3252  139.6941  161.5396 C.3     1  UNL1        0.1616
     17 O         139.3033  138.5904  161.2653 O.3     1  UNL1       -0.3521
     18 C         139.8900  137.8083  162.4030 C.3     1  UNL1        0.1464
     19 C         139.4986  138.1299  163.8148 C.3     1  UNL1        0.0799
     20 C         138.5205  139.2335  164.0891 C.3     1  UNL1        0.1755
     21 H         136.6618  141.5399  162.3444 H       1  UNL1        0.1190
     22 H         137.3985  141.8286  163.8101 H       1  UNL1        0.1190
     23 N         142.4659  142.2849  166.3615 N.pl3   1  UNL1       -0.2003
     24 H         142.6835  143.1535  166.7707 H       1  UNL1        0.2983
     25 C         143.2861  141.7688  165.2166 C.2     1  UNL1        0.1391
     26 C         143.7341  140.3373  165.2003 C.2     1  UNL1        0.0378
     27 C         144.5544  139.8211  164.0555 C.2     1  UNL1        0.0030
     28 C         144.9267  140.7364  162.9269 C.2     1  UNL1       -0.0018
     29 C         144.4788  142.1678  162.9432 C.2     1  UNL1        0.0089
     30 C         144.6907  143.2969  161.9787 C.2     1  UNL1        0.0182
     31 C         144.0014  144.5109  162.5274 C.2     1  UNL1        0.0937
     32 N         143.3635  144.1321  163.8311 N.2     1  UNL1       -0.2583
     33 C         143.6585  142.6840  164.0881 C.3     1  UNL1        0.1844
@<TRIPOS>BOND
     1    15    14    1
     2    15    16    1
     3    16    17    1
     4    17    18    1
     5    18    19    1
     6    19    20    1
     7    20    12    1
     8    12     1    1
     9     1     2    1
    10     2     3    1
    11     3     4    2
    12     4     5    1
    13     5     6    2
    14     6     7    1
    15     7     8    2
    16     7     9    1
    17     9    10    2
    18    10    23    1
    19    23    25    1
    20    25    26    2
    21    26    27    1
    22    27    28    2
    23    28    29    1
    24    29    30    2
    25    30    31    1
    26    31    32    2
    27    32    33    1
    28    10    11    1
    29    20    15    1
    30    11     1    2
    31     9     3    1
    32    33    25    1
    33    33    29    1
    34    14    21    1
    35    14    22    1
    36    12    13    1
    37    23    24    1
@<TRIPOS>MOLECULE
*****
 33 37 0 0 0
SMALL
GASTEIGER

@<TRIPOS>ATOM
      1 C         139.4496  138.6761  165.5406 C.2     1  UNL1        0.3056
      2 C         138.7174  139.0554  166.7936 C.3     1  UNL1        0.1439
      3 C         139.4405  139.7666  167.8988 C.2     1  UNL1        0.0029
      4 C         138.7083  140.1459  169.1517 C.2     1  UNL1        0.0146
      5 C         139.4314  140.8570  170.2568 C.2     1  UNL1        0.0886
      6 N         140.8867  141.1888  170.1090 N.am    1  UNL1       -0.1739
      7 C         141.6190  140.8095  168.8561 C.2     1  UNL1        0.2759
      8 O         143.0743  141.1413  168.7083 O.2     1  UNL1       -0.2678
      9 C         140.8959  140.0984  167.7510 C.2     1  UNL1        0.1344
     10 C         141.6281  139.7190  166.4980 C.2     1  UNL1        0.3328
     11 N         140.9050  139.0079  165.3928 N.2     1  UNL1       -0.0042
     12 N         138.7265  137.9649  164.4354 N.pl3   1  UNL1       -0.2241
     13 H         138.1207  137.2176  164.6445 H       1  UNL1        0.2918
     14 N         141.1060  136.9834  162.8946 N.3     1  UNL1       -0.3170
     15 C         140.1162  137.9017  162.2412 C.3     1  UNL1        0.1239
     16 C         140.3161  138.3292  160.8173 C.3     1  UNL1        0.1616
     17 O         139.3262  139.2475  160.1640 O.3     1  UNL1       -0.3521
     18 C         138.1364  139.7383  160.9345 C.3     1  UNL1        0.1464
     19 C         137.9365  139.3107  162.3582 C.3     1  UNL1        0.0799
     20 C         138.9264  138.3924  163.0116 C.3     1  UNL1        0.1755
     21 H         141.8448  136.7518  162.2305 H       1  UNL1        0.1190
     22 H         140.6338  136.1287  163.1894 H       1  UNL1        0.1190
     23 N         143.0835  140.0508  166.3502 N.pl3   1  UNL1       -0.2003
     24 H         143.7412  139.6702  166.9761 H       1  UNL1        0.2983
     25 C         143.5368  140.9624  165.2487 C.2     1  UNL1        0.1391
     26 C         143.7757  142.4165  165.5291 C.2     1  UNL1        0.0378
     27 C         144.2290  143.3282  164.4276 C.2     1  UNL1        0.0030
     28 C         144.4434  142.7858  163.0456 C.2     1  UNL1       -0.0018
     29 C         144.2045  141.3318  162.7651 C.2     1  UNL1        0.0089
     30 C         144.3312  140.5173  161.5120 C.2     1  UNL1        0.0182
     31 C         143.9561  139.1022  161.8389 C.2     1  UNL1        0.0937
     32 N         143.5977  139.0421  163.2942 N.2     1  UNL1       -0.2583
     33 C         143.7512  140.4201  163.8667 C.3     1  UNL1        0.1844
@<TRIPOS>BOND
     1    15    14    1
     2    15    16    1
     3    16    17    1
     4    17    18    1
     5    18    19    1
     6    19    20    1
     7    20    12    1
     8    12     1    1
     9     1     2    1
    10     2     3    1
    11     3     4    2
    12     4     5    1
    13     5     6    2
    14     6     7    1
    15     7     8    2
    16     7     9    1
    17     9    10    2
    18    10    23    1
    19    23    25    1
    20    25    26    2
    21    26    27    1
    22    27    28    2
    23    28    29    1
    24    29    30    2
    25    30    31    1
    26    31    32    2
    27    32    33    1
    28    10    11    1
    29    20    15    1
    30    11     1    2
    31     9     3    1
    32    33    25    1
    33    33    29    1
    34    14    21    1
    35    14    22    1
    36    12    13    1
    37    23    24    1
@<TRIPOS>MOLECULE
*****
 33 37 0 0 0
SMALL
GASTEIGER

@<TRIPOS>ATOM
      1 C         139.6705  142.5000  166.0321 C.2     1  UNL1        0.3056
      2 C         140.2791  143.0641  167.2817 C.3     1  UNL1        0.1439
      3 C         141.2737  142.2567  168.0621 C.2     1  UNL1        0.0029
      4 C         141.8823  142.8208  169.3116 C.2     1  UNL1        0.0146
      5 C         142.8768  142.0134  170.0919 C.2     1  UNL1        0.0886
      6 N         143.2628  140.6419  169.6227 N.am    1  UNL1       -0.1739
      7 C         142.6542  140.0779  168.3732 C.2     1  UNL1        0.2759
      8 O         143.0401  138.7064  167.9040 O.2     1  UNL1       -0.2678
      9 C         141.6596  140.8852  167.5929 C.2     1  UNL1        0.1344
     10 C         141.0509  140.3212  166.3433 C.2     1  UNL1        0.3328
     11 N         140.0564  141.1286  165.5629 N.2     1  UNL1       -0.0042
     12 N         138.6759  143.3074  165.2517 N.pl3   1  UNL1       -0.2241
     13 H         137.9674  143.8037  165.7219 H       1  UNL1        0.2918
     14 N         137.2658  141.2395  163.5979 N.3     1  UNL1       -0.3170
     15 C         138.0556  142.3246  162.9282 C.3     1  UNL1        0.1239
     16 C         138.1404  142.3758  161.4314 C.3     1  UNL1        0.1616
     17 O         138.9302  143.4610  160.7616 O.3     1  UNL1       -0.3521
     18 C         139.6352  144.4950  161.5886 C.3     1  UNL1        0.1464
     19 C         139.5504  144.4438  163.0853 C.3     1  UNL1        0.0799
     20 C         138.7606  143.3586  163.7551 C.3     1  UNL1        0.1755
     21 H         136.8572  140.6297  162.8897 H       1  UNL1        0.1190
     22 H         136.5221  141.6564  164.1578 H       1  UNL1        0.1190
     23 N         141.4369  138.9497  165.8741 N.pl3   1  UNL1       -0.2003
     24 H         141.5225  138.2137  166.5223 H       1  UNL1        0.2983
     25 C         141.6923  138.6997  164.4173 C.2     1  UNL1        0.1391
     26 C         143.0973  138.6983  163.8916 C.2     1  UNL1        0.0378
     27 C         143.3527  138.4483  162.4349 C.2     1  UNL1        0.0030
     28 C         142.2033  138.1996  161.5037 C.2     1  UNL1       -0.0018
     29 C         140.7985  138.2010  162.0293 C.2     1  UNL1        0.0089
     30 C         139.4749  137.9880  161.3565 C.2     1  UNL1        0.0182
     31 C         138.4013  138.1064  162.3975 C.2     1  UNL1        0.0937
     32 N         139.0615  138.3925  163.7136 N.2     1  UNL1       -0.2583
     33 C         140.5429  138.4511  163.4862 C.3     1  UNL1        0.1844
@<TRIPOS>BOND
     1    15    14    1
     2    15    16    1
     3    16    17    1
     4    17    18    1
     5    18    19    1
     6    19    20    1
     7    20    12    1
     8    12     1    1
     9     1     2    1
    10     2     3    1
    11     3     4    2
    12     4     5    1
    13     5     6    2
    14     6     7    1
    15     7     8    2
    16     7     9    1
    17     9    10    2
    18    10    23    1
    19    23    25    1
    20    25    26    2
    21    26    27    1
    22    27    28    2
    23    28    29    1
    24    29    30    2
    25    30    31    1
    26    31    32    2
    27    32    33    1
    28    10    11    1
    29    20    15    1
    30    11     1    2
    31     9     3    1
    32    33    25    1
    33    33    29    1
    34    14    21    1
    35    14    22    1
    36    12    13    1
    37    23    24    1
@<TRIPOS>MOLECULE
*****
 33 37 0 0 0
SMALL
GASTEIGER

@<TRIPOS>ATOM
      1 C         142.5438  139.6846  166.3985 C.2     1  UNL1        0.3056
      2 C         142.7578  139.4475  167.8640 C.3     1  UNL1        0.1439
      3 C         142.1908  140.4055  168.8695 C.2     1  UNL1        0.0029
      4 C         142.4049  140.1685  170.3350 C.2     1  UNL1        0.0146
      5 C         141.8379  141.1265  171.3404 C.2     1  UNL1        0.0886
      6 N         141.0569  142.3215  170.8801 N.am    1  UNL1       -0.1739
      7 C         140.8428  142.5586  169.4146 C.2     1  UNL1        0.2759
      8 O         140.0617  143.7536  168.9543 O.2     1  UNL1       -0.2678
      9 C         141.4098  141.6006  168.4092 C.2     1  UNL1        0.1344
     10 C         141.1957  141.8376  166.9436 C.2     1  UNL1        0.3328
     11 N         141.7627  140.8796  165.9382 N.2     1  UNL1       -0.0042
     12 N         143.1108  138.7266  165.3931 N.pl3   1  UNL1       -0.2241
     13 H         144.0184  138.3651  165.5149 H       1  UNL1        0.2918
     14 N         144.3182  138.8109  162.6481 N.3     1  UNL1       -0.3170
     15 C         142.8987  138.3615  162.8296 C.3     1  UNL1        0.1239
     16 C         142.0828  137.9542  161.6385 C.3     1  UNL1        0.1616
     17 O         140.6633  137.5048  161.8200 O.3     1  UNL1       -0.3521
     18 C         140.0596  137.4626  163.1925 C.3     1  UNL1        0.1464
     19 C         140.8754  137.8699  164.3835 C.3     1  UNL1        0.0799
     20 C         142.2949  138.3193  164.2021 C.3     1  UNL1        0.1755
     21 H         144.5614  138.7777  161.6581 H       1  UNL1        0.1190
     22 H         144.9396  138.1945  163.1718 H       1  UNL1        0.1190
     23 N         140.4146  143.0326  166.4833 N.pl3   1  UNL1       -0.2003
     24 H         140.2796  143.7960  167.0902 H       1  UNL1        0.2983
     25 C         139.8393  143.0647  165.0985 C.2     1  UNL1        0.1391
     26 C         138.4675  142.5140  164.8432 C.2     1  UNL1        0.0378
     27 C         137.8922  142.5460  163.4584 C.2     1  UNL1        0.0030
     28 C         138.6886  143.1287  162.3286 C.2     1  UNL1       -0.0018
     29 C         140.0603  143.6793  162.5838 C.2     1  UNL1        0.0089
     30 C         141.0730  144.3115  161.6757 C.2     1  UNL1        0.0182
     31 C         142.2743  144.6702  162.4993 C.2     1  UNL1        0.0937
     32 N         142.0040  144.2597  163.9165 N.2     1  UNL1       -0.2583
     33 C         140.6357  143.6473  163.9687 C.3     1  UNL1        0.1844
@<TRIPOS>BOND
     1    15    14    1
     2    15    16    1
     3    16    17    1
     4    17    18    1
     5    18    19    1
     6    19    20    1
     7    20    12    1
     8    12     1    1
     9     1     2    1
    10     2     3    1
    11     3     4    2
    12     4     5    1
    13     5     6    2
    14     6     7    1
    15     7     8    2
    16     7     9    1
    17     9    10    2
    18    10    23    1
    19    23    25    1
    20    25    26    2
    21    26    27    1
    22    27    28    2
    23    28    29    1
    24    29    30    2
    25    30    31    1
    26    31    32    2
    27    32    33    1
    28    10    11    1
    29    20    15    1
    30    11     1    2
    31     9     3    1
    32    33    25    1
    33    33    29    1
    34    14    21    1
    35    14    22    1
    36    12    13    1
    37    23    24    1
@<TRIPOS>MOLECULE
*****
 33 37 0 0 0
SMALL
GASTEIGER

@<TRIPOS>ATOM
      1 C         142.8389  139.2013  165.1233 C.2     1  UNL1        0.3056
      2 C         142.8786  139.6192  166.5633 C.3     1  UNL1        0.1439
      3 C         141.6099  139.6826  167.3611 C.2     1  UNL1        0.0029
      4 C         141.6496  140.1005  168.8011 C.2     1  UNL1        0.0146
      5 C         140.3809  140.1638  169.5989 C.2     1  UNL1        0.0886
      6 N         139.0726  139.8092  168.9566 N.am    1  UNL1       -0.1739
      7 C         139.0329  139.3913  167.5166 C.2     1  UNL1        0.2759
      8 O         137.7245  139.0368  166.8743 O.2     1  UNL1       -0.2678
      9 C         140.3015  139.3280  166.7188 C.2     1  UNL1        0.1344
     10 C         140.2619  138.9101  165.2787 C.2     1  UNL1        0.3328
     11 N         141.5306  138.8467  164.4810 N.2     1  UNL1       -0.0042
     12 N         144.1076  139.1379  164.3254 N.pl3   1  UNL1       -0.2241
     13 H         144.8874  138.6518  164.6786 H       1  UNL1        0.2918
     14 N         143.2288  137.6856  161.8520 N.3     1  UNL1       -0.3170
     15 C         143.7487  139.0891  161.7528 C.3     1  UNL1        0.1239
     16 C         143.8292  139.7664  160.4168 C.3     1  UNL1        0.1616
     17 O         144.3490  141.1700  160.3176 O.3     1  UNL1       -0.3521
     18 C         144.7885  141.8962  161.5544 C.3     1  UNL1        0.1464
     19 C         144.7080  141.2188  162.8903 C.3     1  UNL1        0.0799
     20 C         144.1881  139.8153  162.9895 C.3     1  UNL1        0.1755
     21 H         142.9781  137.3494  160.9222 H       1  UNL1        0.1190
     22 H         142.4047  137.6699  162.4528 H       1  UNL1        0.1190
     23 N         138.9536  138.5555  164.6365 N.pl3   1  UNL1       -0.2003
     24 H         138.3858  137.8544  165.0305 H       1  UNL1        0.2983
     25 C         138.5103  139.2691  163.3938 C.2     1  UNL1        0.1391
     26 C         138.2841  138.4988  162.1267 C.2     1  UNL1        0.0378
     27 C         137.8409  139.2124  160.8841 C.2     1  UNL1        0.0030
     28 C         137.6238  140.6964  160.9084 C.2     1  UNL1       -0.0018
     29 C         137.8500  141.4668  162.1754 C.2     1  UNL1        0.0089
     30 C         137.7180  142.9252  162.5005 C.2     1  UNL1        0.0182
     31 C         138.0797  143.1129  163.9441 C.2     1  UNL1        0.0937
     32 N         138.4352  141.7705  164.5112 N.2     1  UNL1       -0.2583
     33 C         138.2933  140.7532  163.4182 C.3     1  UNL1        0.1844
@<TRIPOS>BOND
     1    15    14    1
     2    15    16    1
     3    16    17    1
     4    17    18    1
     5    18    19    1
     6    19    20    1
     7    20    12    1
     8    12     1    1
     9     1     2    1
    10     2     3    1
    11     3     4    2
    12     4     5    1
    13     5     6    2
    14     6     7    1
    15     7     8    2
    16     7     9    1
    17     9    10    2
    18    10    23    1
    19    23    25    1
    20    25    26    2
    21    26    27    1
    22    27    28    2
    23    28    29    1
    24    29    30    2
    25    30    31    1
    26    31    32    2
    27    32    33    1
    28    10    11    1
    29    20    15    1
    30    11     1    2
    31     9     3    1
    32    33    25    1
    33    33    29    1
    34    14    21    1
    35    14    22    1
    36    12    13    1
    37    23    24    1
@<TRIPOS>MOLECULE
*****
 33 37 0 0 0
SMALL
GASTEIGER

@<TRIPOS>ATOM
      1 C         138.0607  140.6494  159.7765 C.2     1  UNL1        0.3056
      2 C         138.4176  140.3186  158.3577 C.3     1  UNL1        0.1439
      3 C         139.0999  141.3411  157.4980 C.2     1  UNL1        0.0029
      4 C         139.4568  141.0102  156.0792 C.2     1  UNL1        0.0146
      5 C         140.1391  142.0327  155.2195 C.2     1  UNL1        0.0886
      6 N         140.4644  143.3860  155.7787 N.am    1  UNL1       -0.1739
      7 C         140.1076  143.7168  157.1975 C.2     1  UNL1        0.2759
      8 O         140.4329  145.0701  157.7567 O.2     1  UNL1       -0.2678
      9 C         139.4253  142.6944  158.0572 C.2     1  UNL1        0.1344
     10 C         139.0684  143.0252  159.4761 C.2     1  UNL1        0.3328
     11 N         138.3861  142.0027  160.3357 N.2     1  UNL1       -0.0042
     12 N         137.3784  139.6270  160.6363 N.pl3   1  UNL1       -0.2241
     13 H         136.5429  139.2053  160.3306 H       1  UNL1        0.2918
     14 N         136.8697  141.3342  163.0500 N.3     1  UNL1       -0.3170
     15 C         137.7147  140.1005  163.1685 C.3     1  UNL1        0.1239
     16 C         138.3054  139.7204  164.4940 C.3     1  UNL1        0.1616
     17 O         139.1504  138.4868  164.6124 O.3     1  UNL1       -0.3521
     18 C         139.4047  137.6331  163.4054 C.3     1  UNL1        0.1464
     19 C         138.8140  138.0132  162.0801 C.3     1  UNL1        0.0799
     20 C         137.9690  139.2469  161.9616 C.3     1  UNL1        0.1755
     21 H         136.8027  141.7891  163.9605 H       1  UNL1        0.1190
     22 H         135.9363  141.0774  162.7287 H       1  UNL1        0.1190
     23 N         139.3937  144.3785  160.0353 N.pl3   1  UNL1       -0.2003
     24 H         139.1221  145.1903  159.5491 H       1  UNL1        0.2983
     25 C         140.1330  144.4949  161.3352 C.2     1  UNL1        0.1391
     26 C         141.6278  144.6202  161.3393 C.2     1  UNL1        0.0378
     27 C         142.3671  144.7366  162.6392 C.2     1  UNL1        0.0030
     28 C         141.6117  144.7278  163.9351 C.2     1  UNL1       -0.0018
     29 C         140.1170  144.6025  163.9310 C.2     1  UNL1        0.0089
     30 C         139.1099  144.5648  165.0420 C.2     1  UNL1        0.0182
     31 C         137.7481  144.4251  164.4287 C.2     1  UNL1        0.0937
     32 N         137.9136  144.3764  162.9387 N.2     1  UNL1       -0.2583
     33 C         139.3776  144.4861  162.6310 C.3     1  UNL1        0.1844
@<TRIPOS>BOND
     1    15    14    1
     2    15    16    1
     3    16    17    1
     4    17    18    1
     5    18    19    1
     6    19    20    1
     7    20    12    1
     8    12     1    1
     9     1     2    1
    10     2     3    1
    11     3     4    2
    12     4     5    1
    13     5     6    2
    14     6     7    1
    15     7     8    2
    16     7     9    1
    17     9    10    2
    18    10    23    1
    19    23    25    1
    20    25    26    2
    21    26    27    1
    22    27    28    2
    23    28    29    1
    24    29    30    2
    25    30    31    1
    26    31    32    2
    27    32    33    1
    28    10    11    1
    29    20    15    1
    30    11     1    2
    31     9     3    1
    32    33    25    1
    33    33    29    1
    34    14    21    1
    35    14    22    1
    36    12    13    1
    37    23    24    1
@<TRIPOS>MOLECULE
*****
 33 37 0 0 0
SMALL
GASTEIGER

@<TRIPOS>ATOM
      1 C         142.9524  141.6751  159.6134 C.2     1  UNL1        0.3056
      2 C         143.1496  140.4088  158.8341 C.3     1  UNL1        0.1439
      3 C         141.9605  139.6377  158.3425 C.2     1  UNL1        0.0029
      4 C         142.1577  138.3713  157.5632 C.2     1  UNL1        0.0146
      5 C         140.9686  137.6003  157.0717 C.2     1  UNL1        0.0886
      6 N         139.5823  138.0957  157.3596 N.am    1  UNL1       -0.1739
      7 C         139.3851  139.3620  158.1389 C.2     1  UNL1        0.2759
      8 O         137.9988  139.8574  158.4268 O.2     1  UNL1       -0.2678
      9 C         140.5742  140.1330  158.6304 C.2     1  UNL1        0.1344
     10 C         140.3770  141.3994  159.4098 C.2     1  UNL1        0.3328
     11 N         141.5661  142.1705  159.9013 N.2     1  UNL1       -0.0042
     12 N         144.1415  142.4462  160.1049 N.pl3   1  UNL1       -0.2241
     13 H         144.7862  142.8197  159.4615 H       1  UNL1        0.2918
     14 N         142.7791  144.7179  161.5132 N.3     1  UNL1       -0.3170
     15 C         143.6671  143.7840  162.2809 C.3     1  UNL1        0.1239
     16 C         143.8738  143.9860  163.7529 C.3     1  UNL1        0.1616
     17 O         144.7617  143.0521  164.5206 O.3     1  UNL1       -0.3521
     18 C         145.4429  141.9162  163.8164 C.3     1  UNL1        0.1464
     19 C         145.2362  141.7142  162.3445 C.3     1  UNL1        0.0799
     20 C         144.3482  142.6481  161.5768 C.3     1  UNL1        0.1755
     21 H         142.4023  145.4247  162.1446 H       1  UNL1        0.1190
     22 H         142.0119  144.1912  161.0956 H       1  UNL1        0.1190
     23 N         138.9907  141.8948  159.6976 N.pl3   1  UNL1       -0.2003
     24 H         138.3799  142.1073  158.9553 H       1  UNL1        0.2983
     25 C         138.5351  142.0664  161.1164 C.2     1  UNL1        0.1391
     26 C         137.8066  140.9535  161.8100 C.2     1  UNL1        0.0378
     27 C         137.3510  141.1251  163.2287 C.2     1  UNL1        0.0030
     28 C         137.6238  142.4094  163.9540 C.2     1  UNL1       -0.0018
     29 C         138.3523  143.5222  163.2605 C.2     1  UNL1        0.0089
     30 C         138.7613  144.8915  163.7163 C.2     1  UNL1        0.0182
     31 C         139.4697  145.5663  162.5792 C.2     1  UNL1        0.0937
     32 N         139.4985  144.6140  161.4206 N.2     1  UNL1       -0.2583
     33 C         138.8079  143.3507  161.8416 C.3     1  UNL1        0.1844
@<TRIPOS>BOND
     1    15    14    1
     2    15    16    1
     3    16    17    1
     4    17    18    1
     5    18    19    1
     6    19    20    1
     7    20    12    1
     8    12     1    1
     9     1     2    1
    10     2     3    1
    11     3     4    2
    12     4     5    1
    13     5     6    2
    14     6     7    1
    15     7     8    2
    16     7     9    1
    17     9    10    2
    18    10    23    1
    19    23    25    1
    20    25    26    2
    21    26    27    1
    22    27    28    2
    23    28    29    1
    24    29    30    2
    25    30    31    1
    26    31    32    2
    27    32    33    1
    28    10    11    1
    29    20    15    1
    30    11     1    2
    31     9     3    1
    32    33    25    1
    33    33    29    1
    34    14    21    1
    35    14    22    1
    36    12    13    1
    37    23    24    1
