@<TRIPOS>MOLECULE
*****
 21 24 0 0 0
SMALL
GASTEIGER

@<TRIPOS>ATOM
      1 N         140.0478  140.4957  165.0118 N.ar    1  UNL1       -0.3035
      2 C         139.5862  140.5679  166.4372 C.ar    1  UNL1        0.0801
      3 C         140.6425  141.2778  167.2311 C.ar    1  UNL1        0.0191
      4 C         141.7569  141.6444  166.2964 C.ar    1  UNL1        0.0206
      5 C         143.0589  142.3558  166.5170 C.ar    1  UNL1        0.0222
      6 C         143.9933  142.5839  165.3661 C.ar    1  UNL1        0.0990
      7 N         143.6258  142.1005  163.9945 N.ar    1  UNL1       -0.2408
      8 C         142.3239  141.3891  163.7738 C.ar    1  UNL1        0.1163
      9 C         141.3894  141.1610  164.9248 C.ar    1  UNL1        0.0832
     10 C         137.8023  138.6136  161.5963 C.ar    1  UNL1        0.0001
     11 C         137.7760  140.1018  161.7817 C.ar    1  UNL1        0.0015
     12 C         138.5246  140.7292  162.9202 C.ar    1  UNL1        0.0175
     13 C         139.2993  139.8684  163.8733 C.ar    1  UNL1        0.0641
     14 C         139.3256  138.3800  163.6880 C.ar    1  UNL1        0.0175
     15 C         138.5771  137.7527  162.5495 C.ar    1  UNL1        0.0015
     16 C         140.5930  141.5699  168.7015 C.ar    1  UNL1        0.0046
     17 C         140.8904  140.4836  169.6924 C.ar    1  UNL1        0.0207
     18 C         140.8409  140.7757  171.1629 C.ar    1  UNL1        0.0989
     19 N         140.4941  142.1540  171.6425 N.ar    1  UNL1       -0.2423
     20 C         140.1968  143.2402  170.6517 C.ar    1  UNL1        0.0989
     21 C         140.2462  142.9481  169.1812 C.ar    1  UNL1        0.0207
@<TRIPOS>BOND
     1    10    11   ar
     2    11    12   ar
     3    12    13   ar
     4    13     1    1
     5     1     2   ar
     6     2     3   ar
     7     3    16    1
     8    16    17   ar
     9    17    18   ar
    10    18    19   ar
    11    19    20   ar
    12    20    21   ar
    13     3     4   ar
    14     4     5   ar
    15     5     6   ar
    16     6     7   ar
    17     7     8   ar
    18     8     9   ar
    19    13    14   ar
    20    14    15   ar
    21    15    10   ar
    22     9     1   ar
    23    21    16   ar
    24     9     4   ar
@<TRIPOS>MOLECULE
*****
 21 24 0 0 0
SMALL
GASTEIGER

@<TRIPOS>ATOM
      1 N         142.0625  140.1552  164.6627 N.ar    1  UNL1       -0.3035
      2 C         142.5723  141.1159  165.6957 C.ar    1  UNL1        0.0801
      3 C         141.5889  141.1438  166.8280 C.ar    1  UNL1        0.0191
      4 C         140.4713  140.2004  166.4948 C.ar    1  UNL1        0.0206
      5 C         139.2251  139.8187  167.2371 C.ar    1  UNL1        0.0222
      6 C         138.2715  138.8261  166.6411 C.ar    1  UNL1        0.0990
      7 N         138.5641  138.2151  165.3028 N.ar    1  UNL1       -0.2408
      8 C         139.8104  138.5967  164.5605 C.ar    1  UNL1        0.1163
      9 C         140.7640  139.5894  165.1565 C.ar    1  UNL1        0.0832
     10 C         144.0750  139.1474  160.7660 C.ar    1  UNL1        0.0001
     11 C         143.7447  140.5736  161.0926 C.ar    1  UNL1        0.0015
     12 C         143.0739  140.9095  162.3916 C.ar    1  UNL1        0.0175
     13 C         142.7333  139.8193  163.3638 C.ar    1  UNL1        0.0641
     14 C         143.0636  138.3930  163.0371 C.ar    1  UNL1        0.0175
     15 C         143.7345  138.0571  161.7382 C.ar    1  UNL1        0.0015
     16 C         141.7030  141.9701  168.0747 C.ar    1  UNL1        0.0046
     17 C         140.5584  142.8381  168.5066 C.ar    1  UNL1        0.0207
     18 C         140.6725  143.6644  169.7533 C.ar    1  UNL1        0.0989
     19 N         141.9311  143.6226  170.5682 N.ar    1  UNL1       -0.2423
     20 C         143.0757  142.7547  170.1363 C.ar    1  UNL1        0.0989
     21 C         142.9616  141.9284  168.8896 C.ar    1  UNL1        0.0207
@<TRIPOS>BOND
     1    10    11   ar
     2    11    12   ar
     3    12    13   ar
     4    13     1    1
     5     1     2   ar
     6     2     3   ar
     7     3    16    1
     8    16    17   ar
     9    17    18   ar
    10    18    19   ar
    11    19    20   ar
    12    20    21   ar
    13     3     4   ar
    14     4     5   ar
    15     5     6   ar
    16     6     7   ar
    17     7     8   ar
    18     8     9   ar
    19    13    14   ar
    20    14    15   ar
    21    15    10   ar
    22     9     1   ar
    23    21    16   ar
    24     9     4   ar
@<TRIPOS>MOLECULE
*****
 21 24 0 0 0
SMALL
GASTEIGER

@<TRIPOS>ATOM
      1 N         142.1199  141.5183  165.1067 N.ar    1  UNL1       -0.3035
      2 C         142.2389  142.0378  166.5088 C.ar    1  UNL1        0.0801
      3 C         141.1217  141.4483  167.3178 C.ar    1  UNL1        0.0191
      4 C         140.3123  140.5645  166.4157 C.ar    1  UNL1        0.0206
      5 C         139.0933  139.7260  166.6621 C.ar    1  UNL1        0.0222
      6 C         138.4912  138.9307  165.5419 C.ar    1  UNL1        0.0990
      7 N         139.1081  138.9739  164.1753 N.ar    1  UNL1       -0.2408
      8 C         140.3272  139.8124  163.9289 C.ar    1  UNL1        0.1163
      9 C         140.9293  140.6077  165.0491 C.ar    1  UNL1        0.0832
     10 C         144.8549  142.5160  161.6753 C.ar    1  UNL1        0.0001
     11 C         145.3803  141.7551  162.8563 C.ar    1  UNL1        0.0015
     12 C         144.4686  141.4225  164.0001 C.ar    1  UNL1        0.0175
     13 C         143.0316  141.8508  163.9629 C.ar    1  UNL1        0.0641
     14 C         142.5062  142.6119  162.7818 C.ar    1  UNL1        0.0175
     15 C         143.4179  142.9445  161.6380 C.ar    1  UNL1        0.0015
     16 C         140.8598  141.6987  168.7734 C.ar    1  UNL1        0.0046
     17 C         140.3081  143.0203  169.2197 C.ar    1  UNL1        0.0207
     18 C         140.0462  143.2707  170.6753 C.ar    1  UNL1        0.0989
     19 N         140.3361  142.1996  171.6846 N.ar    1  UNL1       -0.2423
     20 C         140.8878  140.8781  171.2383 C.ar    1  UNL1        0.0989
     21 C         141.1497  140.6277  169.7827 C.ar    1  UNL1        0.0207
@<TRIPOS>BOND
     1    10    11   ar
     2    11    12   ar
     3    12    13   ar
     4    13     1    1
     5     1     2   ar
     6     2     3   ar
     7     3    16    1
     8    16    17   ar
     9    17    18   ar
    10    18    19   ar
    11    19    20   ar
    12    20    21   ar
    13     3     4   ar
    14     4     5   ar
    15     5     6   ar
    16     6     7   ar
    17     7     8   ar
    18     8     9   ar
    19    13    14   ar
    20    14    15   ar
    21    15    10   ar
    22     9     1   ar
    23    21    16   ar
    24     9     4   ar
@<TRIPOS>MOLECULE
*****
 21 24 0 0 0
SMALL
GASTEIGER

@<TRIPOS>ATOM
      1 N         141.6476  141.0336  164.3754 N.ar    1  UNL1       -0.3035
      2 C         141.5305  140.6944  165.8319 C.ar    1  UNL1        0.0801
      3 C         140.6701  141.7365  166.4827 C.ar    1  UNL1        0.0191
      4 C         140.2554  142.7198  165.4286 C.ar    1  UNL1        0.0206
      5 C         139.4058  143.9546  165.4864 C.ar    1  UNL1        0.0222
      6 C         139.1603  144.7549  164.2418 C.ar    1  UNL1        0.0990
      7 N         139.7645  144.3205  162.9394 N.ar    1  UNL1       -0.2408
      8 C         140.6142  143.0857  162.8816 C.ar    1  UNL1        0.1163
      9 C         140.8596  142.2854  164.1262 C.ar    1  UNL1        0.0832
     10 C         143.9575  138.7048  161.2946 C.ar    1  UNL1        0.0001
     11 C         144.3312  140.1259  161.5961 C.ar    1  UNL1        0.0015
     12 C         143.5612  140.9021  162.6230 C.ar    1  UNL1        0.0175
     13 C         142.4176  140.2574  163.3485 C.ar    1  UNL1        0.0641
     14 C         142.0440  138.8362  163.0470 C.ar    1  UNL1        0.0175
     15 C         142.8139  138.0599  162.0201 C.ar    1  UNL1        0.0015
     16 C         140.2909  141.7866  167.9331 C.ar    1  UNL1        0.0046
     17 C         140.5424  143.0314  168.7316 C.ar    1  UNL1        0.0207
     18 C         140.1631  143.0814  170.1820 C.ar    1  UNL1        0.0989
     19 N         139.5324  141.8868  170.8340 N.ar    1  UNL1       -0.2423
     20 C         139.2809  140.6421  170.0356 C.ar    1  UNL1        0.0989
     21 C         139.6602  140.5921  168.5852 C.ar    1  UNL1        0.0207
@<TRIPOS>BOND
     1    10    11   ar
     2    11    12   ar
     3    12    13   ar
     4    13     1    1
     5     1     2   ar
     6     2     3   ar
     7     3    16    1
     8    16    17   ar
     9    17    18   ar
    10    18    19   ar
    11    19    20   ar
    12    20    21   ar
    13     3     4   ar
    14     4     5   ar
    15     5     6   ar
    16     6     7   ar
    17     7     8   ar
    18     8     9   ar
    19    13    14   ar
    20    14    15   ar
    21    15    10   ar
    22     9     1   ar
    23    21    16   ar
    24     9     4   ar
@<TRIPOS>MOLECULE
*****
 21 24 0 0 0
SMALL
GASTEIGER

@<TRIPOS>ATOM
      1 N         140.0747  142.6312  164.8588 N.ar    1  UNL1       -0.3035
      2 C         140.4319  142.8974  166.2912 C.ar    1  UNL1        0.0801
      3 C         140.1303  141.6589  167.0819 C.ar    1  UNL1        0.0191
      4 C         139.5867  140.6274  166.1382 C.ar    1  UNL1        0.0206
      5 C         139.1186  139.2185  166.3526 C.ar    1  UNL1        0.0222
      6 C         138.6161  138.4106  165.1930 C.ar    1  UNL1        0.0990
      7 N         138.5817  139.0116  163.8190 N.ar    1  UNL1       -0.2408
      8 C         139.0498  140.4204  163.6047 C.ar    1  UNL1        0.1163
      9 C         139.5523  141.2283  164.7643 C.ar    1  UNL1        0.0832
     10 C         140.4961  145.5323  161.4446 C.ar    1  UNL1        0.0001
     11 C         139.3230  145.6330  162.3739 C.ar    1  UNL1        0.0015
     12 C         139.1826  144.6660  163.5120 C.ar    1  UNL1        0.0175
     13 C         140.2151  143.5983  163.7208 C.ar    1  UNL1        0.0641
     14 C         141.3883  143.4975  162.7914 C.ar    1  UNL1        0.0175
     15 C         141.5288  144.4646  161.6534 C.ar    1  UNL1        0.0015
     16 C         140.3362  141.4829  168.5572 C.ar    1  UNL1        0.0046
     17 C         139.6845  140.3376  169.2740 C.ar    1  UNL1        0.0207
     18 C         139.8904  140.1615  170.7494 C.ar    1  UNL1        0.0989
     19 N         140.7479  141.1307  171.5079 N.ar    1  UNL1       -0.2423
     20 C         141.3995  142.2759  170.7911 C.ar    1  UNL1        0.0989
     21 C         141.1937  142.4519  169.3158 C.ar    1  UNL1        0.0207
@<TRIPOS>BOND
     1    10    11   ar
     2    11    12   ar
     3    12    13   ar
     4    13     1    1
     5     1     2   ar
     6     2     3   ar
     7     3    16    1
     8    16    17   ar
     9    17    18   ar
    10    18    19   ar
    11    19    20   ar
    12    20    21   ar
    13     3     4   ar
    14     4     5   ar
    15     5     6   ar
    16     6     7   ar
    17     7     8   ar
    18     8     9   ar
    19    13    14   ar
    20    14    15   ar
    21    15    10   ar
    22     9     1   ar
    23    21    16   ar
    24     9     4   ar
@<TRIPOS>MOLECULE
*****
 21 24 0 0 0
SMALL
GASTEIGER

@<TRIPOS>ATOM
      1 N         141.2037  140.7817  167.1141 N.ar    1  UNL1       -0.3035
      2 C         141.8582  140.6274  165.7733 C.ar    1  UNL1        0.0801
      3 C         141.0379  139.6664  164.9650 C.ar    1  UNL1        0.0191
      4 C         139.8764  139.2267  165.8062 C.ar    1  UNL1        0.0206
      5 C         138.7387  138.2878  165.5343 C.ar    1  UNL1        0.0222
      6 C         137.7035  138.0382  166.5907 C.ar    1  UNL1        0.0990
      7 N         137.8060  138.7275  167.9190 N.ar    1  UNL1       -0.2408
      8 C         138.9437  139.6664  168.1909 C.ar    1  UNL1        0.1163
      9 C         139.9789  139.9160  167.1345 C.ar    1  UNL1        0.0832
     10 C         142.6592  143.3846  170.4842 C.ar    1  UNL1        0.0001
     11 C         143.5674  142.3491  169.8902 C.ar    1  UNL1        0.0015
     12 C         143.0822  141.4815  168.7669 C.ar    1  UNL1        0.0175
     13 C         141.6889  141.6493  168.2375 C.ar    1  UNL1        0.0641
     14 C         140.7806  142.6849  168.8315 C.ar    1  UNL1        0.0175
     15 C         141.2658  143.5525  169.9548 C.ar    1  UNL1        0.0015
     16 C         141.3280  139.2228  163.5617 C.ar    1  UNL1        0.0046
     17 C         140.4111  139.6229  162.4439 C.ar    1  UNL1        0.0207
     18 C         140.7013  139.1793  161.0407 C.ar    1  UNL1        0.0989
     19 N         141.9083  138.3358  160.7552 N.ar    1  UNL1       -0.2423
     20 C         142.8251  137.9358  161.8729 C.ar    1  UNL1        0.0989
     21 C         142.5350  138.3793  163.2762 C.ar    1  UNL1        0.0207
@<TRIPOS>BOND
     1    10    11   ar
     2    11    12   ar
     3    12    13   ar
     4    13     1    1
     5     1     2   ar
     6     2     3   ar
     7     3    16    1
     8    16    17   ar
     9    17    18   ar
    10    18    19   ar
    11    19    20   ar
    12    20    21   ar
    13     3     4   ar
    14     4     5   ar
    15     5     6   ar
    16     6     7   ar
    17     7     8   ar
    18     8     9   ar
    19    13    14   ar
    20    14    15   ar
    21    15    10   ar
    22     9     1   ar
    23    21    16   ar
    24     9     4   ar
@<TRIPOS>MOLECULE
*****
 21 24 0 0 0
SMALL
GASTEIGER

@<TRIPOS>ATOM
      1 N         140.3879  141.1107  165.6270 N.ar    1  UNL1       -0.3035
      2 C         141.5925  140.4813  164.9924 C.ar    1  UNL1        0.0801
      3 C         141.3716  140.4497  163.5091 C.ar    1  UNL1        0.0191
      4 C         140.0305  141.0596  163.2270 C.ar    1  UNL1        0.0206
      5 C         139.2845  141.2958  161.9474 C.ar    1  UNL1        0.0222
      6 C         137.9304  141.9405  161.9767 C.ar    1  UNL1        0.0990
      7 N         137.3225  142.3491  163.2857 N.ar    1  UNL1       -0.2408
      8 C         138.0686  142.1129  164.5654 C.ar    1  UNL1        0.1163
      9 C         139.4226  141.4682  164.5360 C.ar    1  UNL1        0.0832
     10 C         139.7773  141.8049  170.0311 C.ar    1  UNL1        0.0001
     11 C         140.3561  142.8911  169.1738 C.ar    1  UNL1        0.0015
     12 C         140.5596  142.6597  167.7058 C.ar    1  UNL1        0.0175
     13 C         140.1844  141.3421  167.0951 C.ar    1  UNL1        0.0641
     14 C         139.6056  140.2558  167.9524 C.ar    1  UNL1        0.0175
     15 C         139.4020  140.4872  169.4204 C.ar    1  UNL1        0.0015
     16 C         142.3244  139.9040  162.4872 C.ar    1  UNL1        0.0046
     17 C         142.8463  140.7935  161.3978 C.ar    1  UNL1        0.0207
     18 C         143.7992  140.2478  160.3759 C.ar    1  UNL1        0.0989
     19 N         144.2302  138.8126  160.4434 N.ar    1  UNL1       -0.2423
     20 C         143.7084  137.9232  161.5327 C.ar    1  UNL1        0.0989
     21 C         142.7555  138.4689  162.5545 C.ar    1  UNL1        0.0207
@<TRIPOS>BOND
     1    10    11   ar
     2    11    12   ar
     3    12    13   ar
     4    13     1    1
     5     1     2   ar
     6     2     3   ar
     7     3    16    1
     8    16    17   ar
     9    17    18   ar
    10    18    19   ar
    11    19    20   ar
    12    20    21   ar
    13     3     4   ar
    14     4     5   ar
    15     5     6   ar
    16     6     7   ar
    17     7     8   ar
    18     8     9   ar
    19    13    14   ar
    20    14    15   ar
    21    15    10   ar
    22     9     1   ar
    23    21    16   ar
    24     9     4   ar
@<TRIPOS>MOLECULE
*****
 21 24 0 0 0
SMALL
GASTEIGER

@<TRIPOS>ATOM
      1 N         142.2262  141.5937  166.3333 N.ar    1  UNL1       -0.3035
      2 C         141.2371  142.6530  165.9467 C.ar    1  UNL1        0.0801
      3 C         141.2903  142.8150  164.4564 C.ar    1  UNL1        0.0191
      4 C         142.3122  141.8558  163.9220 C.ar    1  UNL1        0.0206
      5 C         142.7908  141.5723  162.5290 C.ar    1  UNL1        0.0222
      6 C         143.8479  140.5339  162.2961 C.ar    1  UNL1        0.0990
      7 N         144.4264  139.7791  163.4561 N.ar    1  UNL1       -0.2408
      8 C         143.9478  140.0626  164.8491 C.ar    1  UNL1        0.1163
      9 C         142.8907  141.1010  165.0820 C.ar    1  UNL1        0.0832
     10 C         143.0548  140.1478  170.5134 C.ar    1  UNL1        0.0001
     11 C         142.4176  139.2282  169.5142 C.ar    1  UNL1        0.0015
     12 C         142.1415  139.7102  168.1208 C.ar    1  UNL1        0.0175
     13 C         142.5024  141.1117  167.7267 C.ar    1  UNL1        0.0641
     14 C         143.1396  142.0313  168.7259 C.ar    1  UNL1        0.0175
     15 C         143.4158  141.5493  170.1193 C.ar    1  UNL1        0.0015
     16 C         140.4661  143.7687  163.6432 C.ar    1  UNL1        0.0046
     17 C         141.1304  144.8934  162.9056 C.ar    1  UNL1        0.0207
     18 C         140.3062  145.8471  162.0924 C.ar    1  UNL1        0.0989
     19 N         138.8179  145.6762  162.0168 N.ar    1  UNL1       -0.2423
     20 C         138.1538  144.5516  162.7544 C.ar    1  UNL1        0.0989
     21 C         138.9779  143.5979  163.5676 C.ar    1  UNL1        0.0207
@<TRIPOS>BOND
     1    10    11   ar
     2    11    12   ar
     3    12    13   ar
     4    13     1    1
     5     1     2   ar
     6     2     3   ar
     7     3    16    1
     8    16    17   ar
     9    17    18   ar
    10    18    19   ar
    11    19    20   ar
    12    20    21   ar
    13     3     4   ar
    14     4     5   ar
    15     5     6   ar
    16     6     7   ar
    17     7     8   ar
    18     8     9   ar
    19    13    14   ar
    20    14    15   ar
    21    15    10   ar
    22     9     1   ar
    23    21    16   ar
    24     9     4   ar
@<TRIPOS>MOLECULE
*****
 21 24 0 0 0
SMALL
GASTEIGER

@<TRIPOS>ATOM
      1 N         140.6989  142.0078  166.3191 N.ar    1  UNL1       -0.3035
      2 C         140.8237  140.7267  165.5489 C.ar    1  UNL1        0.0801
      3 C         139.9975  140.8525  164.3033 C.ar    1  UNL1        0.0191
      4 C         139.3620  142.2112  164.3037 C.ar    1  UNL1        0.0206
      5 C         138.4447  142.8905  163.3306 C.ar    1  UNL1        0.0222
      6 C         137.9609  144.2839  163.6034 C.ar    1  UNL1        0.0990
      7 N         138.3944  144.9979  164.8493 N.ar    1  UNL1       -0.2408
      8 C         139.3117  144.3186  165.8224 C.ar    1  UNL1        0.1163
      9 C         139.7955  142.9253  165.5496 C.ar    1  UNL1        0.0832
     10 C         142.6856  142.9357  170.2488 C.ar    1  UNL1        0.0001
     11 C         143.4839  142.3411  169.1267 C.ar    1  UNL1        0.0015
     12 C         142.8217  142.0318  167.8168 C.ar    1  UNL1        0.0175
     13 C         141.3612  142.3171  167.6290 C.ar    1  UNL1        0.0641
     14 C         140.5628  142.9118  168.7511 C.ar    1  UNL1        0.0175
     15 C         141.2251  143.2211  170.0610 C.ar    1  UNL1        0.0015
     16 C         139.8351  139.8036  163.2433 C.ar    1  UNL1        0.0046
     17 C         138.5202  139.1008  163.0787 C.ar    1  UNL1        0.0207
     18 C         138.3578  138.0519  162.0188 C.ar    1  UNL1        0.0989
     19 N         139.5104  137.7059  161.1233 N.ar    1  UNL1       -0.2423
     20 C         140.8253  138.4087  161.2879 C.ar    1  UNL1        0.0989
     21 C         140.9876  139.4575  162.3479 C.ar    1  UNL1        0.0207
@<TRIPOS>BOND
     1    10    11   ar
     2    11    12   ar
     3    12    13   ar
     4    13     1    1
     5     1     2   ar
     6     2     3   ar
     7     3    16    1
     8    16    17   ar
     9    17    18   ar
    10    18    19   ar
    11    19    20   ar
    12    20    21   ar
    13     3     4   ar
    14     4     5   ar
    15     5     6   ar
    16     6     7   ar
    17     7     8   ar
    18     8     9   ar
    19    13    14   ar
    20    14    15   ar
    21    15    10   ar
    22     9     1   ar
    23    21    16   ar
    24     9     4   ar
