@<TRIPOS>MOLECULE
*****
 19 21 0 0 0
SMALL
GASTEIGER

@<TRIPOS>ATOM
      1 N         138.5684  140.0714  165.3783 N.3     1  UNL1       -0.2724
      2 C         137.7889  140.7920  164.3185 C.3     1  UNL1        0.0724
      3 C         138.3202  142.1916  164.2233 C.3     1  UNL1        0.0210
      4 C         137.9383  143.3532  163.3545 C.3     1  UNL1        0.0017
      5 C         138.6643  144.6591  163.4867 C.3     1  UNL1        0.0001
      6 C         139.7721  144.8034  164.4877 C.3     1  UNL1        0.0004
      7 C         140.1539  143.6418  165.3565 C.3     1  UNL1        0.0054
      8 C         139.4280  142.3359  165.2243 C.3     1  UNL1        0.0349
      9 C         139.5813  141.0256  165.9381 C.3     1  UNL1        0.0761
     10 C         140.5090  142.3305  166.2643 C.ar    1  UNL1       -0.0206
     11 C         141.8944  141.8829  165.9036 C.ar    1  UNL1       -0.0033
     12 C         142.9753  141.8775  166.9435 C.ar    1  UNL1        0.0119
     13 C         142.6708  142.3198  168.3441 C.ar    1  UNL1        0.0682
     14 CL        143.7518  142.3144  169.3841 Cl      1  UNL1       -0.0814
     15 C         141.2854  142.7674  168.7048 C.ar    1  UNL1        0.0679
     16 CL        140.9808  143.2096  170.1055 Cl      1  UNL1       -0.0814
     17 C         140.2044  142.7727  167.6648 C.ar    1  UNL1        0.0080
     18 C         137.5861  138.3368  167.0445 C.3     1  UNL1        0.0188
     19 C         138.3697  138.6467  165.8036 C.3     1  UNL1        0.0721
@<TRIPOS>BOND
     1    18    19    1
     2    19     1    1
     3     1     2    1
     4     3     2    1
     5     3     4    1
     6     4     5    1
     7     5     6    1
     8     6     7    1
     9     7     8    1
    10     8    10    1
    11    10    11   ar
    12    11    12   ar
    13    12    13   ar
    14    13    14    1
    15    13    15   ar
    16    15    16    1
    17    15    17   ar
    18     8     9    1
    19     9     1    1
    20     8     3    1
    21    17    10   ar
@<TRIPOS>MOLECULE
*****
 19 21 0 0 0
SMALL
GASTEIGER

@<TRIPOS>ATOM
      1 N         139.4018  139.6922  166.0537 N.3     1  UNL1       -0.2724
      2 C         138.9902  139.4472  167.4751 C.3     1  UNL1        0.0724
      3 C         139.4837  140.5950  168.3051 C.3     1  UNL1        0.0210
      4 C         139.3731  140.8945  169.7707 C.3     1  UNL1        0.0017
      5 C         139.9792  142.1484  170.3278 C.3     1  UNL1        0.0001
      6 C         140.6958  143.1028  169.4192 C.3     1  UNL1        0.0004
      7 C         140.8064  142.8034  167.9536 C.3     1  UNL1        0.0054
      8 C         140.2003  141.5495  167.3966 C.3     1  UNL1        0.0349
      9 C         140.1497  140.9915  166.0051 C.3     1  UNL1        0.0761
     10 C         140.8832  142.4050  166.3709 C.ar    1  UNL1       -0.0206
     11 C         140.0846  143.3746  165.5510 C.ar    1  UNL1       -0.0033
     12 C         140.7673  144.2300  164.5255 C.ar    1  UNL1        0.0119
     13 C         142.2488  144.1160  164.3197 C.ar    1  UNL1        0.0682
     14 CL        142.9316  144.9715  163.2941 Cl      1  UNL1       -0.0814
     15 C         143.0474  143.1465  165.1395 C.ar    1  UNL1        0.0679
     16 CL        144.5289  143.0324  164.9338 Cl      1  UNL1       -0.0814
     17 C         142.3646  142.2910  166.1652 C.ar    1  UNL1        0.0080
     18 C         138.9271  137.3227  165.0996 C.3     1  UNL1        0.0188
     19 C         139.1157  138.7953  164.8858 C.3     1  UNL1        0.0721
@<TRIPOS>BOND
     1    18    19    1
     2    19     1    1
     3     1     2    1
     4     3     2    1
     5     3     4    1
     6     4     5    1
     7     5     6    1
     8     6     7    1
     9     7     8    1
    10     8    10    1
    11    10    11   ar
    12    11    12   ar
    13    12    13   ar
    14    13    14    1
    15    13    15   ar
    16    15    16    1
    17    15    17   ar
    18     8     9    1
    19     9     1    1
    20     8     3    1
    21    17    10   ar
@<TRIPOS>MOLECULE
*****
 19 21 0 0 0
SMALL
GASTEIGER

@<TRIPOS>ATOM
      1 N         139.2416  139.5533  165.8458 N.3     1  UNL1       -0.2724
      2 C         138.8881  139.2547  167.2727 C.3     1  UNL1        0.0724
      3 C         139.3737  140.3941  168.1188 C.3     1  UNL1        0.0210
      4 C         139.3052  140.6480  169.5955 C.3     1  UNL1        0.0017
      5 C         139.8903  141.9047  170.1683 C.3     1  UNL1        0.0001
      6 C         140.5440  142.9076  169.2644 C.3     1  UNL1        0.0004
      7 C         140.6125  142.6536  167.7877 C.3     1  UNL1        0.0054
      8 C         140.0274  141.3969  167.2149 C.3     1  UNL1        0.0349
      9 C         139.9457  140.8772  165.8101 C.3     1  UNL1        0.0761
     10 C         140.6463  142.3031  166.1922 C.ar    1  UNL1       -0.0206
     11 C         142.1137  142.2082  165.8961 C.ar    1  UNL1       -0.0033
     12 C         142.7326  143.1143  164.8735 C.ar    1  UNL1        0.0119
     13 C         141.8841  144.1153  164.1469 C.ar    1  UNL1        0.0682
     14 CL        142.5030  145.0215  163.1243 Cl      1  UNL1       -0.0814
     15 C         140.4167  144.2102  164.4429 C.ar    1  UNL1        0.0679
     16 CL        139.5681  145.2113  163.7163 Cl      1  UNL1       -0.0814
     17 C         139.7978  143.3041  165.4656 C.ar    1  UNL1        0.0080
     18 C         139.8867  137.5766  164.2881 C.3     1  UNL1        0.0188
     19 C         138.9433  138.6810  164.6625 C.3     1  UNL1        0.0721
@<TRIPOS>BOND
     1    18    19    1
     2    19     1    1
     3     1     2    1
     4     3     2    1
     5     3     4    1
     6     4     5    1
     7     5     6    1
     8     6     7    1
     9     7     8    1
    10     8    10    1
    11    10    11   ar
    12    11    12   ar
    13    12    13   ar
    14    13    14    1
    15    13    15   ar
    16    15    16    1
    17    15    17   ar
    18     8     9    1
    19     9     1    1
    20     8     3    1
    21    17    10   ar
@<TRIPOS>MOLECULE
*****
 19 21 0 0 0
SMALL
GASTEIGER

@<TRIPOS>ATOM
      1 N         142.7785  139.3212  165.9194 N.3     1  UNL1       -0.2724
      2 C         143.1396  138.9318  167.3222 C.3     1  UNL1        0.0724
      3 C         142.0808  139.4684  168.2393 C.3     1  UNL1        0.0210
      4 C         141.9102  139.3936  169.7277 C.3     1  UNL1        0.0017
      5 C         140.7241  140.0399  170.3800 C.3     1  UNL1        0.0001
      6 C         139.7087  140.7609  169.5439 C.3     1  UNL1        0.0004
      7 C         139.8793  140.8357  168.0556 C.3     1  UNL1        0.0054
      8 C         141.0654  140.1895  167.4033 C.3     1  UNL1        0.0349
      9 C         141.4966  140.0985  165.9695 C.3     1  UNL1        0.0761
     10 C         140.1374  140.8721  166.4426 C.ar    1  UNL1       -0.0206
     11 C         139.0844  140.0800  165.7259 C.ar    1  UNL1       -0.0033
     12 C         138.1565  140.7626  164.7653 C.ar    1  UNL1        0.0119
     13 C         138.2815  142.2374  164.5213 C.ar    1  UNL1        0.0682
     14 CL        137.3535  142.9200  163.5607 Cl      1  UNL1       -0.0814
     15 C         139.3345  143.0295  165.2380 C.ar    1  UNL1        0.0679
     16 CL        139.4596  144.5043  164.9941 Cl      1  UNL1       -0.0814
     17 C         140.2625  142.3468  166.1987 C.ar    1  UNL1        0.0080
     18 C         144.8810  139.6591  164.4309 C.3     1  UNL1        0.0188
     19 C         143.5618  138.9912  164.6834 C.3     1  UNL1        0.0721
@<TRIPOS>BOND
     1    18    19    1
     2    19     1    1
     3     1     2    1
     4     3     2    1
     5     3     4    1
     6     4     5    1
     7     5     6    1
     8     6     7    1
     9     7     8    1
    10     8    10    1
    11    10    11   ar
    12    11    12   ar
    13    12    13   ar
    14    13    14    1
    15    13    15   ar
    16    15    16    1
    17    15    17   ar
    18     8     9    1
    19     9     1    1
    20     8     3    1
    21    17    10   ar
@<TRIPOS>MOLECULE
*****
 19 21 0 0 0
SMALL
GASTEIGER

@<TRIPOS>ATOM
      1 N         140.1542  141.5707  168.7463 N.3     1  UNL1       -0.2724
      2 C         139.3538  140.3031  168.6962 C.3     1  UNL1        0.0724
      3 C         139.2427  139.8813  167.2610 C.3     1  UNL1        0.0210
      4 C         138.5698  138.7104  166.6082 C.3     1  UNL1        0.0017
      5 C         138.6286  138.5466  165.1184 C.3     1  UNL1        0.0001
      6 C         139.3604  139.5535  164.2814 C.3     1  UNL1        0.0004
      7 C         140.0333  140.7244  164.9342 C.3     1  UNL1        0.0054
      8 C         139.9745  140.8882  166.4240 C.3     1  UNL1        0.0349
      9 C         140.5378  141.9323  167.3420 C.3     1  UNL1        0.0761
     10 C         140.7393  141.9703  165.7210 C.ar    1  UNL1       -0.0206
     11 C         140.0095  143.1326  165.1157 C.ar    1  UNL1       -0.0033
     12 C         140.7743  144.2145  164.4127 C.ar    1  UNL1        0.0119
     13 C         142.2689  144.1342  164.3148 C.ar    1  UNL1        0.0682
     14 CL        143.0337  145.2162  163.6117 Cl      1  UNL1       -0.0814
     15 C         142.9988  142.9719  164.9200 C.ar    1  UNL1        0.0679
     16 CL        144.4935  142.8916  164.8222 Cl      1  UNL1       -0.0814
     17 C         142.2339  141.8899  165.6231 C.ar    1  UNL1        0.0080
     18 C         140.5182  143.8410  169.9559 C.3     1  UNL1        0.0188
     19 C         140.5088  142.3413  169.9834 C.3     1  UNL1        0.0721
@<TRIPOS>BOND
     1    18    19    1
     2    19     1    1
     3     1     2    1
     4     3     2    1
     5     3     4    1
     6     4     5    1
     7     5     6    1
     8     6     7    1
     9     7     8    1
    10     8    10    1
    11    10    11   ar
    12    11    12   ar
    13    12    13   ar
    14    13    14    1
    15    13    15   ar
    16    15    16    1
    17    15    17   ar
    18     8     9    1
    19     9     1    1
    20     8     3    1
    21    17    10   ar
@<TRIPOS>MOLECULE
*****
 19 21 0 0 0
SMALL
GASTEIGER

@<TRIPOS>ATOM
      1 N         141.9215  140.7429  168.9857 N.3     1  UNL1       -0.2724
      2 C         140.5149  140.2334  169.0943 C.3     1  UNL1        0.0724
      3 C         140.0250  139.9260  167.7103 C.3     1  UNL1        0.0210
      4 C         138.7164  139.3965  167.2032 C.3     1  UNL1        0.0017
      5 C         138.5118  139.1865  165.7322 C.3     1  UNL1        0.0001
      6 C         139.6157  139.5059  164.7682 C.3     1  UNL1        0.0004
      7 C         140.9243  140.0355  165.2753 C.3     1  UNL1        0.0054
      8 C         141.1290  140.2455  166.7463 C.3     1  UNL1        0.0349
      9 C         142.3010  140.7503  167.5346 C.3     1  UNL1        0.0761
     10 C         142.3182  140.6079  165.9069 C.ar    1  UNL1       -0.0206
     11 C         143.2380  139.5340  165.4062 C.ar    1  UNL1       -0.0033
     12 C         144.4272  139.8964  164.5669 C.ar    1  UNL1        0.0119
     13 C         144.6966  141.3326  164.2283 C.ar    1  UNL1        0.0682
     14 CL        145.8858  141.6950  163.3890 Cl      1  UNL1       -0.0814
     15 C         143.7768  142.4065  164.7290 C.ar    1  UNL1        0.0679
     16 CL        144.0462  143.8428  164.3904 Cl      1  UNL1       -0.0814
     17 C         142.5876  142.0441  165.5684 C.ar    1  UNL1        0.0080
     18 C         143.8246  142.2417  169.9246 C.3     1  UNL1        0.0188
     19 C         142.7952  141.1699  170.1278 C.3     1  UNL1        0.0721
@<TRIPOS>BOND
     1    18    19    1
     2    19     1    1
     3     1     2    1
     4     3     2    1
     5     3     4    1
     6     4     5    1
     7     5     6    1
     8     6     7    1
     9     7     8    1
    10     8    10    1
    11    10    11   ar
    12    11    12   ar
    13    12    13   ar
    14    13    14    1
    15    13    15   ar
    16    15    16    1
    17    15    17   ar
    18     8     9    1
    19     9     1    1
    20     8     3    1
    21    17    10   ar
@<TRIPOS>MOLECULE
*****
 19 21 0 0 0
SMALL
GASTEIGER

@<TRIPOS>ATOM
      1 N         143.5398  139.2720  164.5757 N.3     1  UNL1       -0.2724
      2 C         142.6850  138.3025  163.8144 C.3     1  UNL1        0.0724
      3 C         141.3197  138.3012  164.4357 C.3     1  UNL1        0.0210
      4 C         140.0680  137.5432  164.1065 C.3     1  UNL1        0.0017
      5 C         138.8271  137.7538  164.9225 C.3     1  UNL1        0.0001
      6 C         138.8381  138.7225  166.0677 C.3     1  UNL1        0.0004
      7 C         140.0898  139.4805  166.3969 C.3     1  UNL1        0.0054
      8 C         141.3306  139.2699  165.5809 C.3     1  UNL1        0.0349
      9 C         142.7027  139.8699  165.6674 C.3     1  UNL1        0.0761
     10 C         141.4919  140.2663  166.6904 C.ar    1  UNL1       -0.0206
     11 C         140.9478  141.6556  166.5359 C.ar    1  UNL1       -0.0033
     12 C         141.1091  142.6520  167.6454 C.ar    1  UNL1        0.0119
     13 C         141.8145  142.2591  168.9095 C.ar    1  UNL1        0.0682
     14 CL        141.9758  143.2556  170.0191 Cl      1  UNL1       -0.0814
     15 C         142.3587  140.8700  169.0641 C.ar    1  UNL1        0.0679
     16 CL        143.0642  140.4771  170.3283 Cl      1  UNL1       -0.0814
     17 C         142.1974  139.8735  167.9546 C.ar    1  UNL1        0.0080
     18 C         145.3903  140.9962  163.9819 C.3     1  UNL1        0.0188
     19 C         144.9789  139.5881  164.2946 C.3     1  UNL1        0.0721
@<TRIPOS>BOND
     1    18    19    1
     2    19     1    1
     3     1     2    1
     4     3     2    1
     5     3     4    1
     6     4     5    1
     7     5     6    1
     8     6     7    1
     9     7     8    1
    10     8    10    1
    11    10    11   ar
    12    11    12   ar
    13    12    13   ar
    14    13    14    1
    15    13    15   ar
    16    15    16    1
    17    15    17   ar
    18     8     9    1
    19     9     1    1
    20     8     3    1
    21    17    10   ar
@<TRIPOS>MOLECULE
*****
 19 21 0 0 0
SMALL
GASTEIGER

@<TRIPOS>ATOM
      1 N         140.3828  140.8807  168.8743 N.3     1  UNL1       -0.2724
      2 C         141.5108  139.8930  168.9193 C.3     1  UNL1        0.0724
      3 C         142.0268  139.7147  167.5221 C.3     1  UNL1        0.0210
      4 C         143.1288  138.8667  166.9597 C.3     1  UNL1        0.0017
      5 C         143.4217  138.8961  165.4889 C.3     1  UNL1        0.0001
      6 C         142.6125  139.7736  164.5805 C.3     1  UNL1        0.0004
      7 C         141.5105  140.6216  165.1429 C.3     1  UNL1        0.0054
      8 C         141.2176  140.5921  166.6137 C.3     1  UNL1        0.0349
      9 C         140.2016  141.3128  167.4494 C.3     1  UNL1        0.0761
     10 C         140.3286  141.5142  165.8329 C.ar    1  UNL1       -0.0206
     11 C         140.5543  142.9962  165.8853 C.ar    1  UNL1       -0.0033
     12 C         139.6654  143.9182  165.1045 C.ar    1  UNL1        0.0119
     13 C         138.5508  143.3583  164.2714 C.ar    1  UNL1        0.0682
     14 CL        137.6618  144.2804  163.4907 Cl      1  UNL1       -0.0814
     15 C         138.3251  141.8764  164.2190 C.ar    1  UNL1        0.0679
     16 CL        137.2104  141.3164  163.3859 Cl      1  UNL1       -0.0814
     17 C         139.2140  140.9543  164.9998 C.ar    1  UNL1        0.0080
     18 C         139.7146  142.7665  170.5318 C.3     1  UNL1        0.0188
     19 C         139.5774  141.3533  170.0482 C.3     1  UNL1        0.0721
@<TRIPOS>BOND
     1    18    19    1
     2    19     1    1
     3     1     2    1
     4     3     2    1
     5     3     4    1
     6     4     5    1
     7     5     6    1
     8     6     7    1
     9     7     8    1
    10     8    10    1
    11    10    11   ar
    12    11    12   ar
    13    12    13   ar
    14    13    14    1
    15    13    15   ar
    16    15    16    1
    17    15    17   ar
    18     8     9    1
    19     9     1    1
    20     8     3    1
    21    17    10   ar
@<TRIPOS>MOLECULE
*****
 19 21 0 0 0
SMALL
GASTEIGER

@<TRIPOS>ATOM
      1 N         138.1977  142.1921  164.4757 N.3     1  UNL1       -0.2724
      2 C         137.7154  141.0852  163.5856 C.3     1  UNL1        0.0724
      3 C         138.5771  139.8826  163.8330 C.3     1  UNL1        0.0210
      4 C         138.5687  138.5035  163.2433 C.3     1  UNL1        0.0017
      5 C         139.5752  137.4879  163.6965 C.3     1  UNL1        0.0001
      6 C         140.5901  137.8514  164.7395 C.3     1  UNL1        0.0004
      7 C         140.5985  139.2306  165.3293 C.3     1  UNL1        0.0054
      8 C         139.5920  140.2462  164.8760 C.3     1  UNL1        0.0349
      9 C         139.3575  141.6735  165.2732 C.3     1  UNL1        0.0761
     10 C         140.5411  140.7523  165.9215 C.ar    1  UNL1       -0.0206
     11 C         140.2869  140.4587  167.3704 C.ar    1  UNL1       -0.0033
     12 C         141.2359  140.9648  168.4159 C.ar    1  UNL1        0.0119
     13 C         142.4392  141.7645  168.0126 C.ar    1  UNL1        0.0682
     14 CL        143.3883  142.2706  169.0581 Cl      1  UNL1       -0.0814
     15 C         142.6934  142.0580  166.5638 C.ar    1  UNL1        0.0679
     16 CL        143.8967  142.8577  166.1604 Cl      1  UNL1       -0.0814
     17 C         141.7443  141.5519  165.5182 C.ar    1  UNL1        0.0080
     18 C         138.4315  144.6926  165.1410 C.3     1  UNL1        0.0188
     19 C         137.6215  143.5747  164.5545 C.3     1  UNL1        0.0721
@<TRIPOS>BOND
     1    18    19    1
     2    19     1    1
     3     1     2    1
     4     3     2    1
     5     3     4    1
     6     4     5    1
     7     5     6    1
     8     6     7    1
     9     7     8    1
    10     8    10    1
    11    10    11   ar
    12    11    12   ar
    13    12    13   ar
    14    13    14    1
    15    13    15   ar
    16    15    16    1
    17    15    17   ar
    18     8     9    1
    19     9     1    1
    20     8     3    1
    21    17    10   ar
