@<TRIPOS>MOLECULE
*****
 36 39 0 0 0
SMALL
GASTEIGER

@<TRIPOS>ATOM
      1 O         141.7909  142.8265  167.8952 O.2     1  UNL1       -0.2729
      2 C         142.1616  142.1862  166.5904 C.2     1  UNL1        0.2451
      3 N         142.4251  140.7108  166.5271 N.am    1  UNL1       -0.2988
      4 H         142.6684  140.2906  165.6707 H       1  UNL1        0.1498
      5 C         142.2691  143.0213  165.3489 C.3     1  UNL1        0.1751
      6 C         141.1444  143.7537  164.6790 C.ar    1  UNL1        0.0089
      7 C         139.6861  143.8722  165.0094 C.ar    1  UNL1       -0.0021
      8 C         138.7836  144.6925  164.1363 C.ar    1  UNL1       -0.0003
      9 C         139.3394  145.3944  162.9327 C.ar    1  UNL1        0.0001
     10 C         140.7977  145.2759  162.6023 C.ar    1  UNL1        0.0043
     11 C         141.7002  144.4555  163.4755 C.ar    1  UNL1        0.0516
     12 C         143.1684  144.1569  163.4016 C.2     1  UNL1        0.2493
     13 O         144.1182  144.6569  162.3538 O.2     1  UNL1       -0.2699
     14 N         143.5199  143.2704  164.5595 N.am    1  UNL1       -0.2657
     15 C         144.8830  142.7284  164.8729 C.3     1  UNL1        0.1007
     16 C         145.5095  141.7068  163.9707 C.3     1  UNL1        0.0673
     17 C         144.6662  140.6259  163.3620 C.ar    1  UNL1        0.0607
     18 C         144.5237  140.5357  161.8715 C.ar    1  UNL1        0.0148
     19 C         143.6804  139.4548  161.2628 C.ar    1  UNL1        0.0028
     20 C         142.9797  138.4641  162.1446 C.ar    1  UNL1        0.0207
     21 C         143.1222  138.5543  163.6351 C.ar    1  UNL1        0.0984
     22 N         143.9655  139.6352  164.2438 N.ar    1  UNL1       -0.2481
     23 C         142.3176  139.8758  167.7685 C.3     1  UNL1        0.1179
     24 C         141.0360  139.8516  168.5475 C.ar    1  UNL1        0.0168
     25 C         141.0642  139.9757  170.0420 C.ar    1  UNL1        0.0037
     26 C         139.7825  139.9515  170.8209 C.ar    1  UNL1        0.0574
     27 C         138.4725  139.8033  170.1052 C.ar    1  UNL1        0.2248
     28 N         138.4444  139.6792  168.6106 N.ar    1  UNL1       -0.2104
     29 C         139.7261  139.7034  167.8317 C.ar    1  UNL1        0.0994
     30 O         137.1909  139.7791  170.8841 O.3     1  UNL1       -0.4599
     31 C         136.4128  138.5028  171.0087 C.3     1  UNL1        0.2159
     32 C         135.6451  138.2118  172.2641 C.3     1  UNL1        0.1505
     33 C         135.8055  136.8883  172.9515 C.3     1  UNL1        0.4014
     34 F         135.9660  135.5647  173.6390 F       1  UNL1       -0.1699
     35 F         134.3620  136.9243  173.3576 F       1  UNL1       -0.1699
     36 F         137.2491  136.8523  172.5454 F       1  UNL1       -0.1699
@<TRIPOS>BOND
     1     1     2    2
     2     2     3   am
     3     3    23    1
     4    23    24    1
     5    24    25   ar
     6    25    26   ar
     7    26    27   ar
     8    27    30    1
     9    30    31    1
    10    31    32    1
    11    32    33    1
    12    33    34    1
    13    33    35    1
    14    33    36    1
    15    27    28   ar
    16    28    29   ar
    17     2     5    1
    18     5     6    1
    19     6     7   ar
    20     7     8   ar
    21     8     9   ar
    22     9    10   ar
    23    10    11   ar
    24    11    12    1
    25    12    13    2
    26    12    14   am
    27    14    15    1
    28    15    16    1
    29    16    17    1
    30    17    18   ar
    31    18    19   ar
    32    19    20   ar
    33    20    21   ar
    34    21    22   ar
    35    29    24   ar
    36    14     5    1
    37    22    17   ar
    38    11     6   ar
    39     3     4    1
@<TRIPOS>MOLECULE
*****
 36 39 0 0 0
SMALL
GASTEIGER

@<TRIPOS>ATOM
      1 O         144.3541  143.6403  162.7963 O.2     1  UNL1       -0.2729
      2 C         143.0151  143.1226  162.3619 C.2     1  UNL1        0.2451
      3 N         142.6122  141.7156  162.6910 N.am    1  UNL1       -0.2988
      4 H         141.7333  141.3757  162.4058 H       1  UNL1        0.1498
      5 C         142.0788  144.0117  161.5984 C.3     1  UNL1        0.1751
      6 C         142.0292  144.1663  160.1072 C.ar    1  UNL1        0.0089
      7 C         142.8291  143.5366  159.0057 C.ar    1  UNL1       -0.0021
      8 C         142.5474  143.8930  157.5761 C.ar    1  UNL1       -0.0003
      9 C         141.4658  144.8791  157.2482 C.ar    1  UNL1        0.0001
     10 C         140.6658  145.5088  158.3497 C.ar    1  UNL1        0.0043
     11 C         140.9475  145.1525  159.7792 C.ar    1  UNL1        0.0516
     12 C         140.3287  145.6073  161.0677 C.2     1  UNL1        0.2493
     13 O         139.2075  146.5939  161.2073 O.2     1  UNL1       -0.2699
     14 N         141.0279  144.9023  162.1920 N.am    1  UNL1       -0.2657
     15 C         140.7286  145.0601  163.6534 C.3     1  UNL1        0.1007
     16 C         139.5232  144.3946  164.2483 C.3     1  UNL1        0.0673
     17 C         139.5601  142.9317  164.5777 C.ar    1  UNL1        0.0607
     18 C         139.6003  142.4861  166.0095 C.ar    1  UNL1        0.0148
     19 C         139.6373  141.0232  166.3390 C.ar    1  UNL1        0.0028
     20 C         139.6341  140.0059  165.2367 C.ar    1  UNL1        0.0207
     21 C         139.5939  140.4514  163.8050 C.ar    1  UNL1        0.0984
     22 N         139.5569  141.9143  163.4755 N.ar    1  UNL1       -0.2481
     23 C         143.5484  140.8265  163.4545 C.3     1  UNL1        0.1179
     24 C         143.3489  140.6148  164.9260 C.ar    1  UNL1        0.0168
     25 C         143.2528  141.7947  165.8472 C.ar    1  UNL1        0.0037
     26 C         143.0533  141.5830  167.3187 C.ar    1  UNL1        0.0574
     27 C         142.9499  140.1914  167.8691 C.ar    1  UNL1        0.2248
     28 N         143.0461  139.0115  166.9479 N.ar    1  UNL1       -0.2104
     29 C         143.2456  139.2233  165.4762 C.ar    1  UNL1        0.0994
     30 O         142.7505  139.9798  169.3406 O.3     1  UNL1       -0.4599
     31 C         142.7166  141.1568  170.2698 C.3     1  UNL1        0.2159
     32 C         141.4015  141.7452  170.6872 C.3     1  UNL1        0.1505
     33 C         140.7485  142.7978  169.8413 C.3     1  UNL1        0.4014
     34 F         140.0955  143.8504  168.9953 F       1  UNL1       -0.1699
     35 F         141.9147  143.7111  170.0777 F       1  UNL1       -0.1699
     36 F         139.5824  141.8845  169.6049 F       1  UNL1       -0.1699
@<TRIPOS>BOND
     1     1     2    2
     2     2     3   am
     3     3    23    1
     4    23    24    1
     5    24    25   ar
     6    25    26   ar
     7    26    27   ar
     8    27    30    1
     9    30    31    1
    10    31    32    1
    11    32    33    1
    12    33    34    1
    13    33    35    1
    14    33    36    1
    15    27    28   ar
    16    28    29   ar
    17     2     5    1
    18     5     6    1
    19     6     7   ar
    20     7     8   ar
    21     8     9   ar
    22     9    10   ar
    23    10    11   ar
    24    11    12    1
    25    12    13    2
    26    12    14   am
    27    14    15    1
    28    15    16    1
    29    16    17    1
    30    17    18   ar
    31    18    19   ar
    32    19    20   ar
    33    20    21   ar
    34    21    22   ar
    35    29    24   ar
    36    14     5    1
    37    22    17   ar
    38    11     6   ar
    39     3     4    1
@<TRIPOS>MOLECULE
*****
 36 39 0 0 0
SMALL
GASTEIGER

@<TRIPOS>ATOM
      1 O         138.1185  139.2075  167.2262 O.2     1  UNL1       -0.2729
      2 C         139.2032  139.7788  166.3620 C.2     1  UNL1        0.2451
      3 N         140.4956  140.2262  166.9782 N.am    1  UNL1       -0.2988
      4 H         141.2076  140.6011  166.4110 H       1  UNL1        0.1498
      5 C         138.9956  139.9028  164.8816 C.3     1  UNL1        0.1751
      6 C         138.5917  141.1479  164.1492 C.ar    1  UNL1        0.0089
      7 C         138.2940  142.5394  164.6235 C.ar    1  UNL1       -0.0021
      8 C         137.9066  143.6011  163.6373 C.ar    1  UNL1       -0.0003
      9 C         137.8168  143.2713  162.1767 C.ar    1  UNL1        0.0001
     10 C         138.1145  141.8798  161.7024 C.ar    1  UNL1        0.0043
     11 C         138.5019  140.8181  162.6887 C.ar    1  UNL1        0.0516
     12 C         138.8504  139.3691  162.5185 C.2     1  UNL1        0.2493
     13 O         138.8873  138.6177  161.2207 O.2     1  UNL1       -0.2699
     14 N         139.1555  138.8034  163.8738 N.am    1  UNL1       -0.2657
     15 C         139.5511  137.3870  164.1694 C.3     1  UNL1        0.1007
     16 C         140.9778  137.0594  164.4967 C.3     1  UNL1        0.0673
     17 C         142.0696  138.0243  164.1403 C.ar    1  UNL1        0.0607
     18 C         142.5567  138.1162  162.7245 C.ar    1  UNL1        0.0148
     19 C         143.6485  139.0811  162.3682 C.ar    1  UNL1        0.0028
     20 C         144.2532  139.9541  163.4276 C.ar    1  UNL1        0.0207
     21 C         143.7660  139.8622  164.8433 C.ar    1  UNL1        0.0984
     22 N         142.6742  138.8973  165.1996 N.ar    1  UNL1       -0.2481
     23 C         140.7032  140.1022  168.4586 C.3     1  UNL1        0.1179
     24 C         141.4709  141.1568  169.1991 C.ar    1  UNL1        0.0168
     25 C         142.9706  141.1516  169.1708 C.ar    1  UNL1        0.0037
     26 C         143.7383  142.2063  169.9113 C.ar    1  UNL1        0.0574
     27 C         143.0064  143.2661  170.6802 C.ar    1  UNL1        0.2248
     28 N         141.5067  143.2712  170.7085 N.ar    1  UNL1       -0.2104
     29 C         140.7389  142.2165  169.9680 C.ar    1  UNL1        0.0994
     30 O         143.7741  144.3206  171.4207 O.3     1  UNL1       -0.4599
     31 C         145.2391  144.5059  171.1572 C.3     1  UNL1        0.2159
     32 C         145.9146  145.7878  171.5451 C.3     1  UNL1        0.1505
     33 C         147.1600  145.7563  172.3807 C.3     1  UNL1        0.4014
     34 F         148.4053  145.7248  173.2163 F       1  UNL1       -0.1699
     35 F         147.8143  144.8597  171.3717 F       1  UNL1       -0.1699
     36 F         146.5057  146.6528  173.3897 F       1  UNL1       -0.1699
@<TRIPOS>BOND
     1     1     2    2
     2     2     3   am
     3     3    23    1
     4    23    24    1
     5    24    25   ar
     6    25    26   ar
     7    26    27   ar
     8    27    30    1
     9    30    31    1
    10    31    32    1
    11    32    33    1
    12    33    34    1
    13    33    35    1
    14    33    36    1
    15    27    28   ar
    16    28    29   ar
    17     2     5    1
    18     5     6    1
    19     6     7   ar
    20     7     8   ar
    21     8     9   ar
    22     9    10   ar
    23    10    11   ar
    24    11    12    1
    25    12    13    2
    26    12    14   am
    27    14    15    1
    28    15    16    1
    29    16    17    1
    30    17    18   ar
    31    18    19   ar
    32    19    20   ar
    33    20    21   ar
    34    21    22   ar
    35    29    24   ar
    36    14     5    1
    37    22    17   ar
    38    11     6   ar
    39     3     4    1
@<TRIPOS>MOLECULE
*****
 36 39 0 0 0
SMALL
GASTEIGER

@<TRIPOS>ATOM
      1 O         143.2872  138.6645  167.4147 O.2     1  UNL1       -0.2729
      2 C         142.3241  139.3329  166.4792 C.2     1  UNL1        0.2451
      3 N         141.1988  140.1603  167.0264 N.am    1  UNL1       -0.2988
      4 H         140.5666  140.5991  166.4124 H       1  UNL1        0.1498
      5 C         142.4860  139.1740  164.9964 C.3     1  UNL1        0.1751
      6 C         143.3623  140.0093  164.1107 C.ar    1  UNL1        0.0089
      7 C         144.2730  141.1650  164.4018 C.ar    1  UNL1       -0.0021
      8 C         145.0394  141.8149  163.2882 C.ar    1  UNL1       -0.0003
      9 C         144.8950  141.3091  161.8834 C.ar    1  UNL1        0.0001
     10 C         143.9843  140.1534  161.5923 C.ar    1  UNL1        0.0043
     11 C         143.2179  139.5035  162.7060 C.ar    1  UNL1        0.0516
     12 C         142.2524  138.3557  162.7235 C.2     1  UNL1        0.2493
     13 O         141.8159  137.5525  161.5343 O.2     1  UNL1       -0.2699
     14 N         141.8000  138.1520  164.1391 N.am    1  UNL1       -0.2657
     15 C         140.8317  137.1095  164.6140 C.3     1  UNL1        0.1007
     16 C         139.4070  137.4830  164.8981 C.3     1  UNL1        0.0673
     17 C         138.8461  138.7656  164.3590 C.ar    1  UNL1        0.0607
     18 C         138.3978  138.8460  162.9298 C.ar    1  UNL1        0.0148
     19 C         137.8369  140.1285  162.3908 C.ar    1  UNL1        0.0028
     20 C         137.7244  141.3306  163.2810 C.ar    1  UNL1        0.0207
     21 C         138.1728  141.2501  164.7101 C.ar    1  UNL1        0.0984
     22 N         138.7336  139.9676  165.2491 N.ar    1  UNL1       -0.2481
     23 C         141.0369  140.3193  168.5092 C.3     1  UNL1        0.1179
     24 C         141.8078  141.3794  169.2383 C.ar    1  UNL1        0.0168
     25 C         143.3055  141.3163  169.2896 C.ar    1  UNL1        0.0037
     26 C         144.0763  142.3766  170.0189 C.ar    1  UNL1        0.0574
     27 C         143.3494  143.5000  170.6968 C.ar    1  UNL1        0.2248
     28 N         141.8516  143.5631  170.6455 N.ar    1  UNL1       -0.2104
     29 C         141.0807  142.5028  169.9163 C.ar    1  UNL1        0.0994
     30 O         144.1202  144.5602  171.4260 O.3     1  UNL1       -0.4599
     31 C         145.6172  144.5937  171.3376 C.3     1  UNL1        0.2159
     32 C         146.3599  145.8546  171.6670 C.3     1  UNL1        0.1505
     33 C         146.9855  146.0250  173.0196 C.3     1  UNL1        0.4014
     34 F         147.6112  146.1953  174.3722 F       1  UNL1       -0.1699
     35 F         145.6378  146.3268  173.6049 F       1  UNL1       -0.1699
     36 F         148.3332  145.7231  172.4342 F       1  UNL1       -0.1699
@<TRIPOS>BOND
     1     1     2    2
     2     2     3   am
     3     3    23    1
     4    23    24    1
     5    24    25   ar
     6    25    26   ar
     7    26    27   ar
     8    27    30    1
     9    30    31    1
    10    31    32    1
    11    32    33    1
    12    33    34    1
    13    33    35    1
    14    33    36    1
    15    27    28   ar
    16    28    29   ar
    17     2     5    1
    18     5     6    1
    19     6     7   ar
    20     7     8   ar
    21     8     9   ar
    22     9    10   ar
    23    10    11   ar
    24    11    12    1
    25    12    13    2
    26    12    14   am
    27    14    15    1
    28    15    16    1
    29    16    17    1
    30    17    18   ar
    31    18    19   ar
    32    19    20   ar
    33    20    21   ar
    34    21    22   ar
    35    29    24   ar
    36    14     5    1
    37    22    17   ar
    38    11     6   ar
    39     3     4    1
@<TRIPOS>MOLECULE
*****
 36 39 0 0 0
SMALL
GASTEIGER

@<TRIPOS>ATOM
      1 O         140.4021  141.9647  165.8521 O.2     1  UNL1       -0.2729
      2 C         140.7704  140.5127  165.9279 C.2     1  UNL1        0.2451
      3 N         140.7778  139.8089  167.2526 N.am    1  UNL1       -0.2988
      4 H         141.0196  138.8559  167.3023 H       1  UNL1        0.1498
      5 C         141.1314  139.7643  164.6790 C.3     1  UNL1        0.1751
      6 C         140.1809  139.3437  163.5974 C.ar    1  UNL1        0.0089
      7 C         138.7004  139.5225  163.4370 C.ar    1  UNL1       -0.0021
      8 C         138.0071  138.9823  162.2215 C.ar    1  UNL1       -0.0003
      9 C         138.7944  138.2632  161.1665 C.ar    1  UNL1        0.0001
     10 C         140.2750  138.0843  161.3269 C.ar    1  UNL1        0.0043
     11 C         140.9683  138.6246  162.5424 C.ar    1  UNL1        0.0516
     12 C         142.4052  138.6008  162.9720 C.2     1  UNL1        0.2493
     13 O         143.5419  137.9813  162.2141 O.2     1  UNL1       -0.2699
     14 N         142.5061  139.3052  164.2925 N.am    1  UNL1       -0.2657
     15 C         143.7612  139.5138  165.0869 C.3     1  UNL1        0.1007
     16 C         144.8752  140.3461  164.5244 C.3     1  UNL1        0.0673
     17 C         144.5936  141.7262  164.0087 C.ar    1  UNL1        0.0607
     18 C         144.7033  142.0152  162.5409 C.ar    1  UNL1        0.0148
     19 C         144.4217  143.3953  162.0251 C.ar    1  UNL1        0.0028
     20 C         144.0305  144.4864  162.9772 C.ar    1  UNL1        0.0207
     21 C         143.9209  144.1974  164.4450 C.ar    1  UNL1        0.0984
     22 N         144.2024  142.8173  164.9607 N.ar    1  UNL1       -0.2481
     23 C         140.4169  140.5573  168.5014 C.3     1  UNL1        0.1179
     24 C         141.4201  141.4663  169.1474 C.ar    1  UNL1        0.0168
     25 C         142.8862  141.1754  169.0214 C.ar    1  UNL1        0.0037
     26 C         143.8894  142.0844  169.6675 C.ar    1  UNL1        0.0574
     27 C         143.4265  143.2844  170.4395 C.ar    1  UNL1        0.2248
     28 N         141.9604  143.5752  170.5654 N.ar    1  UNL1       -0.2104
     29 C         140.9571  142.6662  169.9194 C.ar    1  UNL1        0.0994
     30 O         144.4297  144.1933  171.0854 O.3     1  UNL1       -0.4599
     31 C         145.8959  143.9042  170.9567 C.3     1  UNL1        0.2159
     32 C         146.8948  145.0136  171.1035 C.3     1  UNL1        0.1505
     33 C         146.7800  145.9800  172.2449 C.3     1  UNL1        0.4014
     34 F         146.6652  146.9465  173.3864 F       1  UNL1       -0.1699
     35 F         147.5246  145.0241  173.1291 F       1  UNL1       -0.1699
     36 F         146.0353  146.9359  171.3608 F       1  UNL1       -0.1699
@<TRIPOS>BOND
     1     1     2    2
     2     2     3   am
     3     3    23    1
     4    23    24    1
     5    24    25   ar
     6    25    26   ar
     7    26    27   ar
     8    27    30    1
     9    30    31    1
    10    31    32    1
    11    32    33    1
    12    33    34    1
    13    33    35    1
    14    33    36    1
    15    27    28   ar
    16    28    29   ar
    17     2     5    1
    18     5     6    1
    19     6     7   ar
    20     7     8   ar
    21     8     9   ar
    22     9    10   ar
    23    10    11   ar
    24    11    12    1
    25    12    13    2
    26    12    14   am
    27    14    15    1
    28    15    16    1
    29    16    17    1
    30    17    18   ar
    31    18    19   ar
    32    19    20   ar
    33    20    21   ar
    34    21    22   ar
    35    29    24   ar
    36    14     5    1
    37    22    17   ar
    38    11     6   ar
    39     3     4    1
@<TRIPOS>MOLECULE
*****
 36 39 0 0 0
SMALL
GASTEIGER

@<TRIPOS>ATOM
      1 O         141.8364  140.5778  166.8431 O.2     1  UNL1       -0.2729
      2 C         140.3374  140.5490  166.8875 C.2     1  UNL1        0.2451
      3 N         139.6298  140.3349  168.1927 N.am    1  UNL1       -0.2988
      4 H         138.6459  140.3160  168.2220 H       1  UNL1        0.1498
      5 C         139.5459  140.7343  165.6268 C.3     1  UNL1        0.1751
      6 C         139.0860  142.0444  165.0592 C.ar    1  UNL1        0.0089
      7 C         139.2570  143.4580  165.5308 C.ar    1  UNL1       -0.0021
      8 C         138.6732  144.5891  164.7372 C.ar    1  UNL1       -0.0003
      9 C         137.9185  144.3066  163.4721 C.ar    1  UNL1        0.0001
     10 C         137.7475  142.8930  163.0005 C.ar    1  UNL1        0.0043
     11 C         138.3313  141.7619  163.7940 C.ar    1  UNL1        0.0516
     12 C         138.3247  140.2773  163.5799 C.2     1  UNL1        0.2493
     13 O         137.6805  139.5546  162.4341 O.2     1  UNL1       -0.2699
     14 N         139.0754  139.6422  164.7126 N.am    1  UNL1       -0.2657
     15 C         139.3138  138.1730  164.8985 C.3     1  UNL1        0.1007
     16 C         140.4485  137.5009  164.1839 C.3     1  UNL1        0.0673
     17 C         141.6635  138.2905  163.7962 C.ar    1  UNL1        0.0607
     18 C         142.8298  138.3815  164.7351 C.ar    1  UNL1        0.0148
     19 C         144.0448  139.1712  164.3475 C.ar    1  UNL1        0.0028
     20 C         144.0935  139.8698  163.0210 C.ar    1  UNL1        0.0207
     21 C         142.9272  139.7788  162.0822 C.ar    1  UNL1        0.0984
     22 N         141.7122  138.9892  162.4698 N.ar    1  UNL1       -0.2481
     23 C         140.4213  140.1495  169.4534 C.3     1  UNL1        0.1179
     24 C         141.4387  141.1749  169.8577 C.ar    1  UNL1        0.0168
     25 C         142.8988  140.8320  169.8356 C.ar    1  UNL1        0.0037
     26 C         143.9161  141.8575  170.2399 C.ar    1  UNL1        0.0574
     27 C         143.4734  143.2258  170.6663 C.ar    1  UNL1        0.2248
     28 N         142.0133  143.5687  170.6883 N.ar    1  UNL1       -0.2104
     29 C         140.9959  142.5432  170.2840 C.ar    1  UNL1        0.0994
     30 O         144.4908  144.2512  171.0705 O.3     1  UNL1       -0.4599
     31 C         145.9002  144.1482  170.5677 C.3     1  UNL1        0.2159
     32 C         147.0358  144.6470  171.4113 C.3     1  UNL1        0.1505
     33 C         146.8388  145.8324  172.3091 C.3     1  UNL1        0.4014
     34 F         146.6419  147.0178  173.2070 F       1  UNL1       -0.1699
     35 F         146.2121  146.5875  171.1746 F       1  UNL1       -0.1699
     36 F         147.4655  145.0772  173.4435 F       1  UNL1       -0.1699
@<TRIPOS>BOND
     1     1     2    2
     2     2     3   am
     3     3    23    1
     4    23    24    1
     5    24    25   ar
     6    25    26   ar
     7    26    27   ar
     8    27    30    1
     9    30    31    1
    10    31    32    1
    11    32    33    1
    12    33    34    1
    13    33    35    1
    14    33    36    1
    15    27    28   ar
    16    28    29   ar
    17     2     5    1
    18     5     6    1
    19     6     7   ar
    20     7     8   ar
    21     8     9   ar
    22     9    10   ar
    23    10    11   ar
    24    11    12    1
    25    12    13    2
    26    12    14   am
    27    14    15    1
    28    15    16    1
    29    16    17    1
    30    17    18   ar
    31    18    19   ar
    32    19    20   ar
    33    20    21   ar
    34    21    22   ar
    35    29    24   ar
    36    14     5    1
    37    22    17   ar
    38    11     6   ar
    39     3     4    1
@<TRIPOS>MOLECULE
*****
 36 39 0 0 0
SMALL
GASTEIGER

@<TRIPOS>ATOM
      1 O         139.2779  143.9866  159.8943 O.2     1  UNL1       -0.2729
      2 C         140.7016  144.4586  159.9057 C.2     1  UNL1        0.2451
      3 N         141.2323  145.2126  161.0889 N.am    1  UNL1       -0.2988
      4 H         142.1668  145.5224  161.0964 H       1  UNL1        0.1498
      5 C         141.5947  144.1766  158.7340 C.3     1  UNL1        0.1751
      6 C         141.4761  144.7857  157.3684 C.ar    1  UNL1        0.0089
      7 C         140.5125  145.7812  156.7936 C.ar    1  UNL1       -0.0021
      8 C         140.6439  146.2125  155.3630 C.ar    1  UNL1       -0.0003
      9 C         141.7391  145.6484  154.5072 C.ar    1  UNL1        0.0001
     10 C         142.7027  144.6529  155.0820 C.ar    1  UNL1        0.0043
     11 C         142.5713  144.2216  156.5126 C.ar    1  UNL1        0.0516
     12 C         143.3666  143.2638  157.3493 C.2     1  UNL1        0.2493
     13 O         144.5566  142.4728  156.8931 O.2     1  UNL1       -0.2699
     14 N         142.7631  143.2360  158.7222 N.am    1  UNL1       -0.2657
     15 C         143.2436  142.4123  159.8800 C.3     1  UNL1        0.1007
     16 C         144.4892  142.8078  160.6162 C.3     1  UNL1        0.0673
     17 C         144.4062  143.2510  162.0468 C.ar    1  UNL1        0.0607
     18 C         144.7609  142.2975  163.1491 C.ar    1  UNL1        0.0148
     19 C         144.6778  142.7408  164.5797 C.ar    1  UNL1        0.0028
     20 C         144.2402  144.1375  164.9080 C.ar    1  UNL1        0.0207
     21 C         143.8855  145.0909  163.8056 C.ar    1  UNL1        0.0984
     22 N         143.9685  144.6477  162.3750 N.ar    1  UNL1       -0.2481
     23 C         140.3393  145.4946  162.2607 C.3     1  UNL1        0.1179
     24 C         140.1627  144.4624  163.3345 C.ar    1  UNL1        0.0168
     25 C         139.2454  144.7318  164.4904 C.ar    1  UNL1        0.0037
     26 C         139.0690  143.6995  165.5642 C.ar    1  UNL1        0.0574
     27 C         139.8098  142.3977  165.4823 C.ar    1  UNL1        0.2248
     28 N         140.7271  142.1283  164.3265 N.ar    1  UNL1       -0.2104
     29 C         140.9036  143.1607  163.2526 C.ar    1  UNL1        0.0994
     30 O         139.6333  141.3655  166.5562 O.3     1  UNL1       -0.4599
     31 C         139.6544  139.9072  166.2056 C.3     1  UNL1        0.2159
     32 C         138.3952  139.2248  165.7597 C.3     1  UNL1        0.1505
     33 C         137.9494  137.9599  166.4315 C.3     1  UNL1        0.4014
     34 F         137.5035  136.6951  167.1035 F       1  UNL1       -0.1699
     35 F         138.4972  137.1592  165.2876 F       1  UNL1       -0.1699
     36 F         137.4016  138.7607  167.5755 F       1  UNL1       -0.1699
@<TRIPOS>BOND
     1     1     2    2
     2     2     3   am
     3     3    23    1
     4    23    24    1
     5    24    25   ar
     6    25    26   ar
     7    26    27   ar
     8    27    30    1
     9    30    31    1
    10    31    32    1
    11    32    33    1
    12    33    34    1
    13    33    35    1
    14    33    36    1
    15    27    28   ar
    16    28    29   ar
    17     2     5    1
    18     5     6    1
    19     6     7   ar
    20     7     8   ar
    21     8     9   ar
    22     9    10   ar
    23    10    11   ar
    24    11    12    1
    25    12    13    2
    26    12    14   am
    27    14    15    1
    28    15    16    1
    29    16    17    1
    30    17    18   ar
    31    18    19   ar
    32    19    20   ar
    33    20    21   ar
    34    21    22   ar
    35    29    24   ar
    36    14     5    1
    37    22    17   ar
    38    11     6   ar
    39     3     4    1
@<TRIPOS>MOLECULE
*****
 36 39 0 0 0
SMALL
GASTEIGER

@<TRIPOS>ATOM
      1 O         143.1948  142.5066  166.9572 O.2     1  UNL1       -0.2729
      2 C         142.6640  141.4786  166.0025 C.2     1  UNL1        0.2451
      3 N         142.1386  140.1731  166.5220 N.am    1  UNL1       -0.2988
      4 H         141.7902  139.4984  165.8954 H       1  UNL1        0.1498
      5 C         142.6587  141.7559  164.5284 C.3     1  UNL1        0.1751
      6 C         142.0747  142.9657  163.8610 C.ar    1  UNL1        0.0089
      7 C         141.3736  144.1736  164.4081 C.ar    1  UNL1       -0.0021
      8 C         140.8892  145.2454  163.4773 C.ar    1  UNL1       -0.0003
      9 C         141.1060  145.1094  161.9993 C.ar    1  UNL1        0.0001
     10 C         141.8071  143.9015  161.4521 C.ar    1  UNL1        0.0043
     11 C         142.2915  142.8297  162.3830 C.ar    1  UNL1        0.0516
     12 C         143.0094  141.5358  162.1370 C.2     1  UNL1        0.2493
     13 O         143.4271  140.9997  160.7997 O.2     1  UNL1       -0.2699
     14 N         143.2364  140.8722  163.4629 N.am    1  UNL1       -0.2657
     15 C         143.9208  139.5560  163.6844 C.3     1  UNL1        0.1007
     16 C         143.3185  138.2959  163.1373 C.3     1  UNL1        0.0673
     17 C         141.8355  138.0818  163.2069 C.ar    1  UNL1        0.0607
     18 C         141.1885  137.7340  164.5148 C.ar    1  UNL1        0.0148
     19 C         139.7055  137.5199  164.5844 C.ar    1  UNL1        0.0028
     20 C         138.8694  137.6536  163.3461 C.ar    1  UNL1        0.0207
     21 C         139.5164  138.0014  162.0383 C.ar    1  UNL1        0.0984
     22 N         140.9994  138.2155  161.9687 N.ar    1  UNL1       -0.2481
     23 C         142.1439  139.8958  167.9962 C.3     1  UNL1        0.1179
     24 C         140.8508  139.8471  168.7547 C.ar    1  UNL1        0.0168
     25 C         139.5470  139.8203  168.0136 C.ar    1  UNL1        0.0037
     26 C         138.2539  139.7715  168.7723 C.ar    1  UNL1        0.0574
     27 C         138.2646  139.7496  170.2721 C.ar    1  UNL1        0.2248
     28 N         139.5684  139.7764  171.0132 N.ar    1  UNL1       -0.2104
     29 C         140.8616  139.8252  170.2545 C.ar    1  UNL1        0.0994
     30 O         136.9715  139.7009  171.0307 O.3     1  UNL1       -0.4599
     31 C         136.1267  138.4620  170.9941 C.3     1  UNL1        0.2159
     32 C         136.4448  137.3103  171.9010 C.3     1  UNL1        0.1505
     33 C         135.5007  136.9442  173.0077 C.3     1  UNL1        0.4014
     34 F         134.5566  136.5781  174.1144 F       1  UNL1       -0.1699
     35 F         134.8314  138.2804  172.8787 F       1  UNL1       -0.1699
     36 F         136.1700  135.6080  173.1367 F       1  UNL1       -0.1699
@<TRIPOS>BOND
     1     1     2    2
     2     2     3   am
     3     3    23    1
     4    23    24    1
     5    24    25   ar
     6    25    26   ar
     7    26    27   ar
     8    27    30    1
     9    30    31    1
    10    31    32    1
    11    32    33    1
    12    33    34    1
    13    33    35    1
    14    33    36    1
    15    27    28   ar
    16    28    29   ar
    17     2     5    1
    18     5     6    1
    19     6     7   ar
    20     7     8   ar
    21     8     9   ar
    22     9    10   ar
    23    10    11   ar
    24    11    12    1
    25    12    13    2
    26    12    14   am
    27    14    15    1
    28    15    16    1
    29    16    17    1
    30    17    18   ar
    31    18    19   ar
    32    19    20   ar
    33    20    21   ar
    34    21    22   ar
    35    29    24   ar
    36    14     5    1
    37    22    17   ar
    38    11     6   ar
    39     3     4    1
@<TRIPOS>MOLECULE
*****
 36 39 0 0 0
SMALL
GASTEIGER

@<TRIPOS>ATOM
      1 O         137.0596  141.5061  162.6812 O.2     1  UNL1       -0.2729
      2 C         138.5303  141.6746  162.4398 C.2     1  UNL1        0.2451
      3 N         139.5058  140.7140  163.0527 N.am    1  UNL1       -0.2988
      4 H         140.4712  140.8245  162.8943 H       1  UNL1        0.1498
      5 C         139.0257  142.8037  161.5855 C.3     1  UNL1        0.1751
      6 C         139.4058  142.7125  160.1373 C.ar    1  UNL1        0.0089
      7 C         139.4104  141.5651  159.1712 C.ar    1  UNL1       -0.0021
      8 C         139.8521  141.7799  157.7539 C.ar    1  UNL1       -0.0003
      9 C         140.2892  143.1420  157.3028 C.ar    1  UNL1        0.0001
     10 C         140.2846  144.2894  158.2689 C.ar    1  UNL1        0.0043
     11 C         139.8429  144.0746  159.6862 C.ar    1  UNL1        0.0516
     12 C         139.7329  145.0076  160.8556 C.2     1  UNL1        0.2493
     13 O         140.0690  146.4695  160.8517 O.2     1  UNL1       -0.2699
     14 N         139.2278  144.2222  162.0294 N.am    1  UNL1       -0.2657
     15 C         138.9702  144.7607  163.4055 C.3     1  UNL1        0.1007
     16 C         139.9293  144.4621  164.5195 C.3     1  UNL1        0.0673
     17 C         141.3657  144.1593  164.2114 C.ar    1  UNL1        0.0607
     18 C         142.3125  145.2742  163.8787 C.ar    1  UNL1        0.0148
     19 C         143.7490  144.9715  163.5707 C.ar    1  UNL1        0.0028
     20 C         144.2387  143.5538  163.5954 C.ar    1  UNL1        0.0207
     21 C         143.2919  142.4390  163.9281 C.ar    1  UNL1        0.0984
     22 N         141.8554  142.7417  164.2361 N.ar    1  UNL1       -0.2481
     23 C         139.0105  139.5849  163.9070 C.3     1  UNL1        0.1179
     24 C         139.0644  139.6960  165.4019 C.ar    1  UNL1        0.0168
     25 C         138.0576  138.9709  166.2447 C.ar    1  UNL1        0.0037
     26 C         138.1116  139.0820  167.7396 C.ar    1  UNL1        0.0574
     27 C         139.1724  139.9184  168.3917 C.ar    1  UNL1        0.2248
     28 N         140.1793  140.6435  167.5489 N.ar    1  UNL1       -0.2104
     29 C         140.1253  140.5323  166.0539 C.ar    1  UNL1        0.0994
     30 O         139.2264  140.0295  169.8866 O.3     1  UNL1       -0.4599
     31 C         140.5280  140.3266  170.5702 C.3     1  UNL1        0.2159
     32 C         140.8113  141.7105  171.0749 C.3     1  UNL1        0.1505
     33 C         140.5010  142.9003  170.2158 C.3     1  UNL1        0.4014
     34 F         140.1906  144.0901  169.3567 F       1  UNL1       -0.1699
     35 F         139.1895  143.0694  170.9240 F       1  UNL1       -0.1699
     36 F         141.8124  142.7311  169.5077 F       1  UNL1       -0.1699
@<TRIPOS>BOND
     1     1     2    2
     2     2     3   am
     3     3    23    1
     4    23    24    1
     5    24    25   ar
     6    25    26   ar
     7    26    27   ar
     8    27    30    1
     9    30    31    1
    10    31    32    1
    11    32    33    1
    12    33    34    1
    13    33    35    1
    14    33    36    1
    15    27    28   ar
    16    28    29   ar
    17     2     5    1
    18     5     6    1
    19     6     7   ar
    20     7     8   ar
    21     8     9   ar
    22     9    10   ar
    23    10    11   ar
    24    11    12    1
    25    12    13    2
    26    12    14   am
    27    14    15    1
    28    15    16    1
    29    16    17    1
    30    17    18   ar
    31    18    19   ar
    32    19    20   ar
    33    20    21   ar
    34    21    22   ar
    35    29    24   ar
    36    14     5    1
    37    22    17   ar
    38    11     6   ar
    39     3     4    1
