@<TRIPOS>MOLECULE
*****
 26 28 0 0 0
SMALL
GASTEIGER

@<TRIPOS>ATOM
      1 C         138.7805  140.8341  165.2075 C.ar    1  UNL1        0.1344
      2 C         138.0714  139.5684  165.5882 C.ar    1  UNL1        0.0345
      3 C         138.2385  139.0005  166.9664 C.ar    1  UNL1        0.0045
      4 C         139.1148  139.6984  167.9640 C.ar    1  UNL1        0.0208
      5 C         139.8239  140.9642  167.5833 C.ar    1  UNL1        0.1000
      6 N         139.6568  141.5320  166.2051 N.ar    1  UNL1       -0.2290
      7 C         140.7002  141.6621  168.5808 C.ar    1  UNL1        0.0983
      8 C         140.4996  143.0507  169.1113 C.ar    1  UNL1        0.1193
      9 N         141.6063  143.3408  170.0814 N.ar    1  UNL1       -0.2223
     10 C         142.4910  142.1314  170.1504 C.ar    1  UNL1        0.1785
     11 N         141.9309  141.0939  169.2230 N.ar    1  UNL1       -0.3097
     12 C         142.5015  139.7280  168.9804 C.3     1  UNL1        0.0871
     13 C         142.6545  138.7657  170.1208 C.3     1  UNL1        0.0245
     14 C         142.9191  139.3245  167.5973 C.3     1  UNL1        0.0245
     15 C         139.6293  141.1035  162.7668 C.2     1  UNL1        0.2567
     16 O         140.8123  140.2370  163.0826 O.2     1  UNL1       -0.2696
     17 N         138.6134  141.4020  163.8292 N.am    1  UNL1       -0.2656
     18 H         137.8369  141.9707  163.6219 H       1  UNL1        0.1566
     19 C         138.6794  142.8997  161.0299 C.ar    1  UNL1        0.2478
     20 N         138.7820  143.0981  159.5466 N.ar    1  UNL1       -0.1313
     21 N         139.6281  141.9924  158.9885 N.ar    1  UNL1       -0.2443
     22 C         139.9902  141.8019  157.5454 C.3     1  UNL1        0.1539
     23 C         140.0485  141.1106  160.1269 C.ar    1  UNL1        0.1045
     24 C         139.4622  141.6714  161.3885 C.ar    1  UNL1        0.1268
     25 C         138.6573  144.8091  162.7917 C.3     1  UNL1        0.2543
     26 O         137.9264  143.7757  161.9867 O.3     1  UNL1       -0.4551
@<TRIPOS>BOND
     1    25    26    1
     2    26    19    1
     3    19    20   ar
     4    20    21   ar
     5    21    22    1
     6    21    23   ar
     7    23    24   ar
     8    24    15    1
     9    15    16    2
    10    15    17   am
    11    17     1    1
    12     1     2   ar
    13     2     3   ar
    14     3     4   ar
    15     4     5   ar
    16     5     7    1
    17     7     8   ar
    18     8     9   ar
    19     9    10   ar
    20    10    11   ar
    21    11    12    1
    22    12    13    1
    23    12    14    1
    24     5     6   ar
    25    24    19   ar
    26     6     1   ar
    27    11     7   ar
    28    17    18    1
@<TRIPOS>MOLECULE
*****
 26 28 0 0 0
SMALL
GASTEIGER

@<TRIPOS>ATOM
      1 C         139.4675  141.3602  165.4893 C.ar    1  UNL1        0.1344
      2 C         138.6071  140.1452  165.3065 C.ar    1  UNL1        0.0345
      3 C         138.3163  139.2496  166.4741 C.ar    1  UNL1        0.0045
      4 C         138.8859  139.5690  167.8245 C.ar    1  UNL1        0.0208
      5 C         139.7464  140.7840  168.0073 C.ar    1  UNL1        0.1000
      6 N         140.0372  141.6795  166.8397 N.ar    1  UNL1       -0.2290
      7 C         140.3160  141.1033  169.3576 C.ar    1  UNL1        0.0983
      8 C         139.7737  142.1109  170.3275 C.ar    1  UNL1        0.1193
      9 N         140.6505  142.1015  171.5445 N.ar    1  UNL1       -0.2223
     10 C         141.7347  141.0881  171.3268 C.ar    1  UNL1        0.1785
     11 N         141.5280  140.4712  169.9753 N.ar    1  UNL1       -0.3097
     12 C         142.3832  139.4087  169.3510 C.3     1  UNL1        0.0871
     13 C         142.8681  138.2546  170.1772 C.3     1  UNL1        0.0245
     14 C         142.7535  139.5004  167.9002 C.3     1  UNL1        0.0245
     15 C         141.0749  142.1564  163.6098 C.2     1  UNL1        0.2567
     16 O         142.1007  141.1613  164.0655 O.2     1  UNL1       -0.2696
     17 N         139.7584  142.2558  164.3217 N.am    1  UNL1       -0.2656
     18 H         139.0852  142.9089  164.0226 H       1  UNL1        0.1566
     19 C         142.7129  143.5857  162.0544 C.ar    1  UNL1        0.2478
     20 N         142.5403  144.4347  160.8299 N.ar    1  UNL1       -0.1313
     21 N         141.0863  144.4258  160.4610 N.ar    1  UNL1       -0.2443
     22 C         140.4670  145.1451  159.2995 C.3     1  UNL1        0.1539
     23 C         140.3604  143.5712  161.4575 C.ar    1  UNL1        0.1045
     24 C         141.3658  143.0520  162.4422 C.ar    1  UNL1        0.1268
     25 C         144.9391  142.2609  162.2532 C.3     1  UNL1        0.2543
     26 O         144.0057  143.3173  162.7661 O.3     1  UNL1       -0.4551
@<TRIPOS>BOND
     1    25    26    1
     2    26    19    1
     3    19    20   ar
     4    20    21   ar
     5    21    22    1
     6    21    23   ar
     7    23    24   ar
     8    24    15    1
     9    15    16    2
    10    15    17   am
    11    17     1    1
    12     1     2   ar
    13     2     3   ar
    14     3     4   ar
    15     4     5   ar
    16     5     7    1
    17     7     8   ar
    18     8     9   ar
    19     9    10   ar
    20    10    11   ar
    21    11    12    1
    22    12    13    1
    23    12    14    1
    24     5     6   ar
    25    24    19   ar
    26     6     1   ar
    27    11     7   ar
    28    17    18    1
@<TRIPOS>MOLECULE
*****
 26 28 0 0 0
SMALL
GASTEIGER

@<TRIPOS>ATOM
      1 C         142.1029  143.5925  164.6496 C.ar    1  UNL1        0.1344
      2 C         143.5792  143.5663  164.9140 C.ar    1  UNL1        0.0345
      3 C         144.1162  142.8146  166.0957 C.ar    1  UNL1        0.0045
      4 C         143.1769  142.0892  167.0131 C.ar    1  UNL1        0.0208
      5 C         141.7007  142.1155  166.7487 C.ar    1  UNL1        0.1000
      6 N         141.1637  142.8671  165.5670 N.ar    1  UNL1       -0.2290
      7 C         140.7614  141.3900  167.6661 C.ar    1  UNL1        0.0983
      8 C         139.9506  140.1769  167.3183 C.ar    1  UNL1        0.1193
      9 N         139.1561  139.7875  168.5296 N.ar    1  UNL1       -0.2223
     10 C         139.4759  140.7600  169.6260 C.ar    1  UNL1        0.1785
     11 N         140.4680  141.7504  169.0923 N.ar    1  UNL1       -0.3097
     12 C         141.0624  142.8994  169.8516 C.3     1  UNL1        0.0871
     13 C         140.3077  144.1901  169.9709 C.3     1  UNL1        0.0245
     14 C         142.4117  142.7576  170.4916 C.3     1  UNL1        0.0245
     15 C         141.6850  143.7612  162.0909 C.2     1  UNL1        0.2567
     16 O         142.3412  142.4266  161.8957 O.2     1  UNL1       -0.2696
     17 N         141.5659  144.3442  163.4678 N.am    1  UNL1       -0.2656
     18 H         141.1352  145.2202  163.5958 H       1  UNL1        0.1566
     19 C         139.9375  145.3987  160.9034 C.ar    1  UNL1        0.2478
     20 N         139.7685  145.9440  159.5163 N.ar    1  UNL1       -0.1313
     21 N         140.8746  145.3951  158.6646 N.ar    1  UNL1       -0.2443
     22 C         141.0902  145.6806  157.2079 C.3     1  UNL1        0.1539
     23 C         141.7272  144.5106  159.5254 C.ar    1  UNL1        0.1045
     24 C         141.1479  144.5129  160.9090 C.ar    1  UNL1        0.1268
     25 C         138.2062  144.5981  162.6674 C.3     1  UNL1        0.2543
     26 O         139.0516  145.6884  162.0787 O.3     1  UNL1       -0.4551
@<TRIPOS>BOND
     1    25    26    1
     2    26    19    1
     3    19    20   ar
     4    20    21   ar
     5    21    22    1
     6    21    23   ar
     7    23    24   ar
     8    24    15    1
     9    15    16    2
    10    15    17   am
    11    17     1    1
    12     1     2   ar
    13     2     3   ar
    14     3     4   ar
    15     4     5   ar
    16     5     7    1
    17     7     8   ar
    18     8     9   ar
    19     9    10   ar
    20    10    11   ar
    21    11    12    1
    22    12    13    1
    23    12    14    1
    24     5     6   ar
    25    24    19   ar
    26     6     1   ar
    27    11     7   ar
    28    17    18    1
@<TRIPOS>MOLECULE
*****
 26 28 0 0 0
SMALL
GASTEIGER

@<TRIPOS>ATOM
      1 C         142.3547  141.4402  164.5574 C.ar    1  UNL1        0.1344
      2 C         143.4263  140.4129  164.3425 C.ar    1  UNL1        0.0345
      3 C         143.6139  139.3056  165.3369 C.ar    1  UNL1        0.0045
      4 C         142.7299  139.2257  166.5461 C.ar    1  UNL1        0.0208
      5 C         141.6583  140.2531  166.7609 C.ar    1  UNL1        0.1000
      6 N         141.4707  141.3603  165.7666 N.ar    1  UNL1       -0.2290
      7 C         140.7743  140.1732  167.9702 C.ar    1  UNL1        0.0983
      8 C         139.3108  139.8447  167.9722 C.ar    1  UNL1        0.1193
      9 N         138.8306  139.8762  169.3930 N.ar    1  UNL1       -0.2223
     10 C         139.9974  140.2242  170.2690 C.ar    1  UNL1        0.1785
     11 N         141.1987  140.4077  169.3896 N.ar    1  UNL1       -0.3097
     12 C         142.5816  140.7634  169.8491 C.3     1  UNL1        0.0871
     13 C         143.3119  139.8605  170.7984 C.3     1  UNL1        0.0245
     14 C         143.2343  142.0220  169.3592 C.3     1  UNL1        0.0245
     15 C         140.9769  142.5419  162.6500 C.2     1  UNL1        0.2567
     16 O         139.9744  141.4291  162.7314 O.2     1  UNL1       -0.2696
     17 N         142.1670  142.5475  163.5630 N.am    1  UNL1       -0.2656
     18 H         142.8250  143.2779  163.5095 H       1  UNL1        0.1566
     19 C         139.8376  144.8011  161.7879 C.ar    1  UNL1        0.2478
     20 N         139.9805  145.6628  160.5684 N.ar    1  UNL1       -0.1313
     21 N         141.0205  145.0434  159.6825 N.ar    1  UNL1       -0.2443
     22 C         141.4800  145.5752  158.3573 C.3     1  UNL1        0.1539
     23 C         141.5203  143.7989  160.3545 C.ar    1  UNL1        0.1045
     24 C         140.7892  143.6492  161.6556 C.ar    1  UNL1        0.1268
     25 C         137.6951  144.1826  163.1209 C.3     1  UNL1        0.2543
     26 O         138.9065  145.0480  162.9377 O.3     1  UNL1       -0.4551
@<TRIPOS>BOND
     1    25    26    1
     2    26    19    1
     3    19    20   ar
     4    20    21   ar
     5    21    22    1
     6    21    23   ar
     7    23    24   ar
     8    24    15    1
     9    15    16    2
    10    15    17   am
    11    17     1    1
    12     1     2   ar
    13     2     3   ar
    14     3     4   ar
    15     4     5   ar
    16     5     7    1
    17     7     8   ar
    18     8     9   ar
    19     9    10   ar
    20    10    11   ar
    21    11    12    1
    22    12    13    1
    23    12    14    1
    24     5     6   ar
    25    24    19   ar
    26     6     1   ar
    27    11     7   ar
    28    17    18    1
@<TRIPOS>MOLECULE
*****
 26 28 0 0 0
SMALL
GASTEIGER

@<TRIPOS>ATOM
      1 C         139.4569  140.9604  164.9382 C.ar    1  UNL1        0.1344
      2 C         138.5058  139.8402  164.6374 C.ar    1  UNL1        0.0345
      3 C         138.0346  138.9398  165.7406 C.ar    1  UNL1        0.0045
      4 C         138.5146  139.1595  167.1447 C.ar    1  UNL1        0.0208
      5 C         139.4657  140.2797  167.4455 C.ar    1  UNL1        0.1000
      6 N         139.9369  141.1801  166.3423 N.ar    1  UNL1       -0.2290
      7 C         139.9456  140.4994  168.8496 C.ar    1  UNL1        0.0983
      8 C         139.0965  140.4736  170.0858 C.ar    1  UNL1        0.1193
      9 N         139.9850  140.7418  171.2642 N.ar    1  UNL1       -0.2223
     10 C         141.3833  140.9334  170.7563 C.ar    1  UNL1        0.1785
     11 N         141.3589  140.7836  169.2640 N.ar    1  UNL1       -0.3097
     12 C         142.5405  140.8979  168.3470 C.3     1  UNL1        0.0871
     13 C         142.9870  139.7101  167.5473 C.3     1  UNL1        0.0245
     14 C         143.2758  142.2002  168.2298 C.3     1  UNL1        0.0245
     15 C         141.2071  141.5562  163.1128 C.2     1  UNL1        0.2567
     16 O         142.0149  140.3511  163.4939 O.2     1  UNL1       -0.2696
     17 N         139.9282  141.8609  163.8350 N.am    1  UNL1       -0.2656
     18 H         139.3981  142.6518  163.5848 H       1  UNL1        0.1566
     19 C         141.5098  143.9462  161.9545 C.ar    1  UNL1        0.2478
     20 N         142.1281  144.4358  160.6786 N.ar    1  UNL1       -0.1313
     21 N         142.6789  143.2489  159.9451 N.ar    1  UNL1       -0.2443
     22 C         143.3839  143.2797  158.6215 C.3     1  UNL1        0.1539
     23 C         142.4009  142.0257  160.7677 C.ar    1  UNL1        0.1045
     24 C         141.6784  142.4567  162.0096 C.ar    1  UNL1        0.1268
     25 C         139.4460  145.3005  162.7649 C.3     1  UNL1        0.2543
     26 O         140.8404  144.7967  162.9930 O.3     1  UNL1       -0.4551
@<TRIPOS>BOND
     1    25    26    1
     2    26    19    1
     3    19    20   ar
     4    20    21   ar
     5    21    22    1
     6    21    23   ar
     7    23    24   ar
     8    24    15    1
     9    15    16    2
    10    15    17   am
    11    17     1    1
    12     1     2   ar
    13     2     3   ar
    14     3     4   ar
    15     4     5   ar
    16     5     7    1
    17     7     8   ar
    18     8     9   ar
    19     9    10   ar
    20    10    11   ar
    21    11    12    1
    22    12    13    1
    23    12    14    1
    24     5     6   ar
    25    24    19   ar
    26     6     1   ar
    27    11     7   ar
    28    17    18    1
@<TRIPOS>MOLECULE
*****
 26 28 0 0 0
SMALL
GASTEIGER

@<TRIPOS>ATOM
      1 C         139.9702  140.7731  164.7853 C.ar    1  UNL1        0.1344
      2 C         138.6408  140.0835  164.8705 C.ar    1  UNL1        0.0345
      3 C         138.2151  139.4314  166.1524 C.ar    1  UNL1        0.0045
      4 C         139.1187  139.4688  167.3491 C.ar    1  UNL1        0.0208
      5 C         140.4481  140.1583  167.2639 C.ar    1  UNL1        0.1000
      6 N         140.8738  140.8105  165.9819 N.ar    1  UNL1       -0.2290
      7 C         141.3517  140.1957  168.4606 C.ar    1  UNL1        0.0983
      8 C         142.4284  139.2026  168.7837 C.ar    1  UNL1        0.1193
      9 N         143.0794  139.6259  170.0671 N.ar    1  UNL1       -0.2223
     10 C         142.4051  140.8807  170.5371 C.ar    1  UNL1        0.1785
     11 N         141.3373  141.2328  169.5442 N.ar    1  UNL1       -0.3097
     12 C         140.4167  142.4146  169.6214 C.3     1  UNL1        0.0871
     13 C         140.3499  143.3890  168.4831 C.3     1  UNL1        0.0245
     14 C         139.5628  142.6220  170.8372 C.3     1  UNL1        0.0245
     15 C         140.3226  142.9166  163.3600 C.2     1  UNL1        0.2567
     16 O         139.8236  143.7558  164.4988 O.2     1  UNL1       -0.2696
     17 N         140.3959  141.4253  163.5033 N.am    1  UNL1       -0.2656
     18 H         140.7235  140.8745  162.7559 H       1  UNL1        0.1566
     19 C         142.1388  144.0153  161.7353 C.ar    1  UNL1        0.2478
     20 N         142.1082  144.6114  160.3592 N.ar    1  UNL1       -0.1313
     21 N         140.6989  144.5334  159.8514 N.ar    1  UNL1       -0.2443
     22 C         140.2149  145.0151  158.5159 C.3     1  UNL1        0.1539
     23 C         139.8584  143.8890  160.9138 C.ar    1  UNL1        0.1045
     24 C         140.7484  143.5688  162.0781 C.ar    1  UNL1        0.1268
     25 C         143.7268  145.0098  163.5350 C.3     1  UNL1        0.2543
     26 O         143.3475  143.8880  162.6144 O.3     1  UNL1       -0.4551
@<TRIPOS>BOND
     1    25    26    1
     2    26    19    1
     3    19    20   ar
     4    20    21   ar
     5    21    22    1
     6    21    23   ar
     7    23    24   ar
     8    24    15    1
     9    15    16    2
    10    15    17   am
    11    17     1    1
    12     1     2   ar
    13     2     3   ar
    14     3     4   ar
    15     4     5   ar
    16     5     7    1
    17     7     8   ar
    18     8     9   ar
    19     9    10   ar
    20    10    11   ar
    21    11    12    1
    22    12    13    1
    23    12    14    1
    24     5     6   ar
    25    24    19   ar
    26     6     1   ar
    27    11     7   ar
    28    17    18    1
@<TRIPOS>MOLECULE
*****
 26 28 0 0 0
SMALL
GASTEIGER

@<TRIPOS>ATOM
      1 C         138.6368  142.6773  162.6914 C.ar    1  UNL1        0.1344
      2 C         137.6476  143.6304  163.2939 C.ar    1  UNL1        0.0345
      3 C         137.9794  144.3501  164.5674 C.ar    1  UNL1        0.0045
      4 C         139.3005  144.1167  165.2384 C.ar    1  UNL1        0.0208
      5 C         140.2897  143.1636  164.6359 C.ar    1  UNL1        0.1000
      6 N         139.9579  142.4439  163.3625 N.ar    1  UNL1       -0.2290
      7 C         141.6108  142.9303  165.3070 C.ar    1  UNL1        0.0983
      8 C         142.9621  143.1451  164.6923 C.ar    1  UNL1        0.1193
      9 N         143.9990  142.7887  165.7159 N.ar    1  UNL1       -0.2223
     10 C         143.2886  142.3535  166.9633 C.ar    1  UNL1        0.1785
     11 N         141.8126  142.4410  166.7105 N.ar    1  UNL1       -0.3097
     12 C         140.7287  142.0993  167.6895 C.3     1  UNL1        0.0871
     13 C         139.9327  140.8396  167.5177 C.3     1  UNL1        0.0245
     14 C         140.4407  143.0173  168.8404 C.3     1  UNL1        0.0245
     15 C         138.6203  142.5900  160.0949 C.2     1  UNL1        0.2567
     16 O         139.2675  143.9423  160.0453 O.2     1  UNL1       -0.2696
     17 N         138.3049  141.9575  161.4179 N.am    1  UNL1       -0.2656
     18 H         137.8802  141.0700  161.4504 H       1  UNL1        0.1566
     19 C         138.2662  140.3828  158.6293 C.ar    1  UNL1        0.2478
     20 N         137.8846  140.1048  157.2055 N.ar    1  UNL1       -0.1313
     21 N         137.6710  141.4206  156.5175 N.ar    1  UNL1       -0.2443
     22 C         137.2770  141.6117  155.0829 C.3     1  UNL1        0.1539
     23 C         137.9206  142.5117  157.5162 C.ar    1  UNL1        0.1045
     24 C         138.2884  141.8702  158.8213 C.ar    1  UNL1        0.1268
     25 C         139.9884  138.9194  159.9109 C.3     1  UNL1        0.2543
     26 O         138.5719  139.3539  159.6771 O.3     1  UNL1       -0.4551
@<TRIPOS>BOND
     1    25    26    1
     2    26    19    1
     3    19    20   ar
     4    20    21   ar
     5    21    22    1
     6    21    23   ar
     7    23    24   ar
     8    24    15    1
     9    15    16    2
    10    15    17   am
    11    17     1    1
    12     1     2   ar
    13     2     3   ar
    14     3     4   ar
    15     4     5   ar
    16     5     7    1
    17     7     8   ar
    18     8     9   ar
    19     9    10   ar
    20    10    11   ar
    21    11    12    1
    22    12    13    1
    23    12    14    1
    24     5     6   ar
    25    24    19   ar
    26     6     1   ar
    27    11     7   ar
    28    17    18    1
@<TRIPOS>MOLECULE
*****
 26 28 0 0 0
SMALL
GASTEIGER

@<TRIPOS>ATOM
      1 C         143.5339  143.3339  161.7661 C.ar    1  UNL1        0.1344
      2 C         144.3777  144.2186  162.6351 C.ar    1  UNL1        0.0345
      3 C         143.7372  145.0433  163.7120 C.ar    1  UNL1        0.0045
      4 C         142.2529  144.9831  163.9198 C.ar    1  UNL1        0.0208
      5 C         141.4091  144.0984  163.0508 C.ar    1  UNL1        0.1000
      6 N         142.0496  143.2738  161.9740 N.ar    1  UNL1       -0.2290
      7 C         139.9248  144.0383  163.2587 C.ar    1  UNL1        0.0983
      8 C         138.8917  144.7718  162.4559 C.ar    1  UNL1        0.1193
      9 N         137.5413  144.4210  163.0069 N.ar    1  UNL1       -0.2223
     10 C         137.7400  143.4706  164.1503 C.ar    1  UNL1        0.1785
     11 N         139.2130  143.2341  164.3059 N.ar    1  UNL1       -0.3097
     12 C         139.8606  142.3488  165.3291 C.3     1  UNL1        0.0871
     13 C         140.0475  140.8877  165.0462 C.3     1  UNL1        0.0245
     14 C         140.3213  142.9247  166.6354 C.3     1  UNL1        0.0245
     15 C         143.9164  142.8286  159.2465 C.2     1  UNL1        0.2567
     16 O         143.0178  143.9726  158.8806 O.2     1  UNL1       -0.2696
     17 N         144.1744  142.5092  160.6891 N.am    1  UNL1       -0.2656
     18 H         144.7642  141.7584  160.9292 H       1  UNL1        0.1566
     19 C         144.2046  140.5896  157.8149 C.ar    1  UNL1        0.2478
     20 N         145.0921  140.1604  156.6844 N.ar    1  UNL1       -0.1313
     21 N         145.9929  141.3094  156.3402 N.ar    1  UNL1       -0.2443
     22 C         147.0405  141.3177  155.2667 C.3     1  UNL1        0.1539
     23 C         145.6621  142.4488  157.2582 C.ar    1  UNL1        0.1045
     24 C         144.5569  142.0039  158.1695 C.ar    1  UNL1        0.1268
     25 C         143.4333  139.0888  159.7905 C.3     1  UNL1        0.2543
     26 O         143.1501  139.7517  158.4750 O.3     1  UNL1       -0.4551
@<TRIPOS>BOND
     1    25    26    1
     2    26    19    1
     3    19    20   ar
     4    20    21   ar
     5    21    22    1
     6    21    23   ar
     7    23    24   ar
     8    24    15    1
     9    15    16    2
    10    15    17   am
    11    17     1    1
    12     1     2   ar
    13     2     3   ar
    14     3     4   ar
    15     4     5   ar
    16     5     7    1
    17     7     8   ar
    18     8     9   ar
    19     9    10   ar
    20    10    11   ar
    21    11    12    1
    22    12    13    1
    23    12    14    1
    24     5     6   ar
    25    24    19   ar
    26     6     1   ar
    27    11     7   ar
    28    17    18    1
@<TRIPOS>MOLECULE
*****
 26 28 0 0 0
SMALL
GASTEIGER

@<TRIPOS>ATOM
      1 C         138.5905  142.6923  162.7276 C.ar    1  UNL1        0.1344
      2 C         137.6185  143.6805  163.3007 C.ar    1  UNL1        0.0345
      3 C         137.9200  144.3598  164.6036 C.ar    1  UNL1        0.0045
      4 C         139.1935  144.0508  165.3334 C.ar    1  UNL1        0.0208
      5 C         140.1656  143.0626  164.7603 C.ar    1  UNL1        0.1000
      6 N         139.8640  142.3833  163.4574 N.ar    1  UNL1       -0.2290
      7 C         141.4391  142.7536  165.4901 C.ar    1  UNL1        0.0983
      8 C         141.5595  141.9545  166.7538 C.ar    1  UNL1        0.1193
      9 N         143.0107  141.8965  167.1291 N.ar    1  UNL1       -0.2223
     10 C         143.7871  142.6597  166.0973 C.ar    1  UNL1        0.1785
     11 N         142.8158  143.1895  165.0844 N.ar    1  UNL1       -0.3097
     12 C         143.1607  144.0109  163.8776 C.3     1  UNL1        0.0871
     13 C         142.5223  145.3531  163.6765 C.3     1  UNL1        0.0245
     14 C         144.1442  143.4899  162.8718 C.3     1  UNL1        0.0245
     15 C         138.6517  142.6785  160.1302 C.2     1  UNL1        0.2567
     16 O         139.3159  144.0234  160.1388 O.2     1  UNL1       -0.2696
     17 N         138.2890  142.0129  161.4246 N.am    1  UNL1       -0.2656
     18 H         137.8530  141.1302  161.4190 H       1  UNL1        0.1566
     19 C         138.0411  140.5430  158.6429 C.ar    1  UNL1        0.2478
     20 N         137.8048  140.3007  157.1816 N.ar    1  UNL1       -0.1313
     21 N         137.9677  141.6071  156.4628 N.ar    1  UNL1       -0.2443
     22 C         137.8196  141.8255  154.9862 C.3     1  UNL1        0.1539
     23 C         138.3048  142.6569  157.4799 C.ar    1  UNL1        0.1045
     24 C         138.3502  141.9992  158.8273 C.ar    1  UNL1        0.1268
     25 C         139.2136  138.7480  160.1103 C.3     1  UNL1        0.2543
     26 O         137.9793  139.5105  159.7292 O.3     1  UNL1       -0.4551
@<TRIPOS>BOND
     1    25    26    1
     2    26    19    1
     3    19    20   ar
     4    20    21   ar
     5    21    22    1
     6    21    23   ar
     7    23    24   ar
     8    24    15    1
     9    15    16    2
    10    15    17   am
    11    17     1    1
    12     1     2   ar
    13     2     3   ar
    14     3     4   ar
    15     4     5   ar
    16     5     7    1
    17     7     8   ar
    18     8     9   ar
    19     9    10   ar
    20    10    11   ar
    21    11    12    1
    22    12    13    1
    23    12    14    1
    24     5     6   ar
    25    24    19   ar
    26     6     1   ar
    27    11     7   ar
    28    17    18    1
