@<TRIPOS>MOLECULE
*****
 34 37 0 0 0
SMALL
GASTEIGER

@<TRIPOS>ATOM
      1 O         138.5687  139.5258  169.3178 O.2     1  UNL1       -0.2699
      2 C         139.4795  140.3112  168.4212 C.2     1  UNL1        0.2496
      3 N         139.4340  140.1014  166.9365 N.am    1  UNL1       -0.2660
      4 C         138.4778  139.1064  166.3487 C.3     1  UNL1        0.1160
      5 C         138.4324  138.8966  164.8640 C.3     1  UNL1        0.1197
      6 N         139.3431  139.6818  163.9674 N.am    1  UNL1       -0.2555
      7 C         140.2993  140.6769  164.5553 C.2     1  UNL1        0.2497
      8 O         141.2100  141.4621  163.6587 O.2     1  UNL1       -0.2727
      9 C         140.3447  140.8866  166.0399 C.3     1  UNL1        0.1799
     10 C         140.4357  141.3062  169.0091 C.ar    1  UNL1        0.0581
     11 C         139.9703  142.6962  169.3270 C.ar    1  UNL1        0.0343
     12 C         140.9265  143.6913  169.9149 C.ar    1  UNL1        0.1425
     13 F         140.4611  145.0813  170.2329 F       1  UNL1       -0.2041
     14 C         142.3481  143.2961  170.1848 C.ar    1  UNL1        0.0592
     15 C         142.8136  141.9061  169.8669 C.ar    1  UNL1        0.1425
     16 F         144.2351  141.5110  170.1368 F       1  UNL1       -0.2041
     17 C         141.8572  140.9111  169.2790 C.ar    1  UNL1        0.0343
     18 C         139.2976  139.4721  162.4829 C.ar    1  UNL1        0.0541
     19 C         138.1348  139.9875  161.6879 C.ar    1  UNL1        0.0180
     20 C         138.0892  139.7777  160.2033 C.ar    1  UNL1        0.0382
     21 C         139.2066  139.0526  159.5137 C.ar    1  UNL1        0.1386
     22 C         140.3696  138.5371  160.3088 C.ar    1  UNL1        0.0382
     23 C         140.4150  138.7469  161.7933 C.ar    1  UNL1        0.0180
     24 O         139.1612  138.8428  158.0292 O.3     1  UNL1       -0.4754
     25 C         140.4210  138.5315  157.2769 C.3     1  UNL1        0.2068
     26 C         140.5217  137.2695  156.4722 C.3     1  UNL1        0.0646
     27 C         141.8676  136.7316  156.0861 C.3     1  UNL1        0.0759
     28 N         142.1443  135.2607  156.1859 N.3     1  UNL1       -0.2726
     29 C         143.2069  134.8635  157.1673 C.3     1  UNL1        0.0721
     30 C         143.7095  133.4890  157.4963 C.3     1  UNL1        0.0173
     31 C         143.2736  132.1724  156.9252 C.3     1  UNL1        0.0015
     32 C         142.2274  131.9048  155.8840 C.3     1  UNL1        0.0015
     33 C         141.3588  132.8881  155.1568 C.3     1  UNL1        0.0173
     34 C         141.3219  134.3816  155.2912 C.3     1  UNL1        0.0721
@<TRIPOS>BOND
     1     1     2    2
     2     2    10    1
     3    10    11   ar
     4    11    12   ar
     5    12    13    1
     6    12    14   ar
     7    14    15   ar
     8    15    16    1
     9    15    17   ar
    10     2     3   am
    11     3     4    1
    12     4     5    1
    13     5     6    1
    14     6    18    1
    15    18    19   ar
    16    19    20   ar
    17    20    21   ar
    18    21    24    1
    19    24    25    1
    20    25    26    1
    21    26    27    1
    22    27    28    1
    23    28    29    1
    24    29    30    1
    25    30    31    1
    26    31    32    1
    27    32    33    1
    28    33    34    1
    29    21    22   ar
    30    22    23   ar
    31     6     7   am
    32     7     8    2
    33     7     9    1
    34    17    10   ar
    35     9     3    1
    36    23    18   ar
    37    34    28    1
@<TRIPOS>MOLECULE
*****
 34 37 0 0 0
SMALL
GASTEIGER

@<TRIPOS>ATOM
      1 O         138.1384  139.1616  168.1354 O.2     1  UNL1       -0.2699
      2 C         139.4615  139.7424  167.7327 C.2     1  UNL1        0.2496
      3 N         139.9859  139.5221  166.3447 N.am    1  UNL1       -0.2660
      4 C         139.1872  138.7212  165.3595 C.3     1  UNL1        0.1160
      5 C         139.7117  138.5009  163.9715 C.3     1  UNL1        0.1197
      6 N         141.0348  139.0816  163.5687 N.am    1  UNL1       -0.2555
      7 C         141.8335  139.8826  164.5539 C.2     1  UNL1        0.2497
      8 O         143.1565  140.4633  164.1511 O.2     1  UNL1       -0.2727
      9 C         141.3090  140.1028  165.9419 C.3     1  UNL1        0.1799
     10 C         140.2601  140.5433  168.7179 C.ar    1  UNL1        0.0581
     11 C         140.0287  142.0197  168.8471 C.ar    1  UNL1        0.0343
     12 C         140.8275  142.8207  169.8323 C.ar    1  UNL1        0.1425
     13 F         140.5961  144.2971  169.9615 F       1  UNL1       -0.2041
     14 C         141.8575  142.1452  170.6882 C.ar    1  UNL1        0.0592
     15 C         142.0889  140.6688  170.5590 C.ar    1  UNL1        0.1425
     16 F         143.1190  139.9934  171.4149 F       1  UNL1       -0.2041
     17 C         141.2902  139.8679  169.5738 C.ar    1  UNL1        0.0343
     18 C         141.5592  138.8614  162.1808 C.ar    1  UNL1        0.0541
     19 C         140.9673  139.6152  161.0270 C.ar    1  UNL1        0.0180
     20 C         141.4917  139.3950  159.6390 C.ar    1  UNL1        0.0382
     21 C         142.6080  138.4209  159.4048 C.ar    1  UNL1        0.1386
     22 C         143.2000  137.6670  160.5587 C.ar    1  UNL1        0.0382
     23 C         142.6755  137.8872  161.9466 C.ar    1  UNL1        0.0180
     24 O         143.1325  138.2006  158.0168 O.3     1  UNL1       -0.4754
     25 C         142.4375  137.2420  157.0959 C.3     1  UNL1        0.2068
     26 C         143.1945  136.0924  156.4996 C.3     1  UNL1        0.0646
     27 C         142.4741  134.8279  156.1365 C.3     1  UNL1        0.0759
     28 N         143.0350  133.4998  156.5507 N.3     1  UNL1       -0.2726
     29 C         144.2484  133.5518  157.4311 C.3     1  UNL1        0.0721
     30 C         145.0348  132.4121  158.0080 C.3     1  UNL1        0.0173
     31 C         144.8021  130.9391  157.8469 C.3     1  UNL1        0.0015
     32 C         143.7255  130.2418  157.0693 C.3     1  UNL1        0.0015
     33 C         142.6157  130.8454  156.2606 C.3     1  UNL1        0.0173
     34 C         142.3085  132.2954  156.0298 C.3     1  UNL1        0.0721
@<TRIPOS>BOND
     1     1     2    2
     2     2    10    1
     3    10    11   ar
     4    11    12   ar
     5    12    13    1
     6    12    14   ar
     7    14    15   ar
     8    15    16    1
     9    15    17   ar
    10     2     3   am
    11     3     4    1
    12     4     5    1
    13     5     6    1
    14     6    18    1
    15    18    19   ar
    16    19    20   ar
    17    20    21   ar
    18    21    24    1
    19    24    25    1
    20    25    26    1
    21    26    27    1
    22    27    28    1
    23    28    29    1
    24    29    30    1
    25    30    31    1
    26    31    32    1
    27    32    33    1
    28    33    34    1
    29    21    22   ar
    30    22    23   ar
    31     6     7   am
    32     7     8    2
    33     7     9    1
    34    17    10   ar
    35     9     3    1
    36    23    18   ar
    37    34    28    1
@<TRIPOS>MOLECULE
*****
 34 37 0 0 0
SMALL
GASTEIGER

@<TRIPOS>ATOM
      1 O         138.6303  139.3530  156.9420 O.2     1  UNL1       -0.2699
      2 C         139.7658  138.9068  157.8147 C.2     1  UNL1        0.2496
      3 N         139.6399  138.9846  159.3074 N.am    1  UNL1       -0.2660
      4 C         138.3786  139.5087  159.9274 C.3     1  UNL1        0.1160
      5 C         138.2527  139.5865  161.4201 C.3     1  UNL1        0.1197
      6 N         139.3882  139.1403  162.2928 N.am    1  UNL1       -0.2555
      7 C         140.6496  138.6163  161.6728 C.2     1  UNL1        0.2497
      8 O         141.7851  138.1701  162.5455 O.2     1  UNL1       -0.2727
      9 C         140.7754  138.5385  160.1801 C.3     1  UNL1        0.1799
     10 C         141.0271  138.3828  157.1947 C.ar    1  UNL1        0.0581
     11 C         141.1289  136.9367  156.8095 C.ar    1  UNL1        0.0343
     12 C         142.3903  136.4126  156.1895 C.ar    1  UNL1        0.1425
     13 F         142.4921  134.9665  155.8042 F       1  UNL1       -0.2041
     14 C         143.5499  137.3348  155.9548 C.ar    1  UNL1        0.0592
     15 C         143.4481  138.7809  156.3400 C.ar    1  UNL1        0.1425
     16 F         144.6077  139.7029  156.1053 F       1  UNL1       -0.2041
     17 C         142.1867  139.3048  156.9600 C.ar    1  UNL1        0.0343
     18 C         139.2624  139.2182  163.7854 C.ar    1  UNL1        0.0541
     19 C         139.7434  140.4366  164.5161 C.ar    1  UNL1        0.0180
     20 C         139.6175  140.5145  166.0088 C.ar    1  UNL1        0.0382
     21 C         139.0107  139.3739  166.7708 C.ar    1  UNL1        0.1386
     22 C         138.5296  138.1553  166.0401 C.ar    1  UNL1        0.0382
     23 C         138.6555  138.0775  164.5474 C.ar    1  UNL1        0.0180
     24 O         138.8848  139.4517  168.2635 O.3     1  UNL1       -0.4754
     25 C         139.6551  140.4870  169.0281 C.3     1  UNL1        0.2068
     26 C         140.7640  140.0692  169.9480 C.3     1  UNL1        0.0646
     27 C         142.1844  140.4214  169.6187 C.3     1  UNL1        0.0759
     28 N         142.6217  140.5132  168.1868 N.3     1  UNL1       -0.2726
     29 C         142.8302  141.9014  167.6579 C.3     1  UNL1        0.0721
     30 C         143.2613  142.3239  166.2846 C.3     1  UNL1        0.0173
     31 C         143.5902  141.4629  165.1014 C.3     1  UNL1        0.0015
     32 C         143.5694  139.9665  164.9989 C.3     1  UNL1        0.0015
     33 C         143.2145  138.9617  166.0545 C.3     1  UNL1        0.0173
     34 C         142.7928  139.2051  167.4733 C.3     1  UNL1        0.0721
@<TRIPOS>BOND
     1     1     2    2
     2     2    10    1
     3    10    11   ar
     4    11    12   ar
     5    12    13    1
     6    12    14   ar
     7    14    15   ar
     8    15    16    1
     9    15    17   ar
    10     2     3   am
    11     3     4    1
    12     4     5    1
    13     5     6    1
    14     6    18    1
    15    18    19   ar
    16    19    20   ar
    17    20    21   ar
    18    21    24    1
    19    24    25    1
    20    25    26    1
    21    26    27    1
    22    27    28    1
    23    28    29    1
    24    29    30    1
    25    30    31    1
    26    31    32    1
    27    32    33    1
    28    33    34    1
    29    21    22   ar
    30    22    23   ar
    31     6     7   am
    32     7     8    2
    33     7     9    1
    34    17    10   ar
    35     9     3    1
    36    23    18   ar
    37    34    28    1
@<TRIPOS>MOLECULE
*****
 34 37 0 0 0
SMALL
GASTEIGER

@<TRIPOS>ATOM
      1 O         138.2506  139.1364  168.0749 O.2     1  UNL1       -0.2699
      2 C         139.5757  139.7262  167.6926 C.2     1  UNL1        0.2496
      3 N         140.1149  139.5242  166.3074 N.am    1  UNL1       -0.2660
      4 C         139.3289  138.7325  165.3047 C.3     1  UNL1        0.1160
      5 C         139.8681  138.5305  163.9195 C.3     1  UNL1        0.1197
      6 N         141.1932  139.1202  163.5371 N.am    1  UNL1       -0.2555
      7 C         141.9792  139.9120  164.5399 C.2     1  UNL1        0.2497
      8 O         143.3044  140.5017  164.1575 O.2     1  UNL1       -0.2727
      9 C         141.4400  140.1139  165.9250 C.3     1  UNL1        0.1799
     10 C         140.3617  140.5179  168.6952 C.ar    1  UNL1        0.0581
     11 C         141.3749  139.8330  169.5638 C.ar    1  UNL1        0.0343
     12 C         142.1609  140.6247  170.5665 C.ar    1  UNL1        0.1425
     13 F         143.1741  139.9398  171.4351 F       1  UNL1       -0.2041
     14 C         141.9337  142.1014  170.7006 C.ar    1  UNL1        0.0592
     15 C         140.9206  142.7863  169.8320 C.ar    1  UNL1        0.1425
     16 F         140.6935  144.2628  169.9660 F       1  UNL1       -0.2041
     17 C         140.1346  141.9944  168.8293 C.ar    1  UNL1        0.0343
     18 C         141.7323  138.9183  162.1521 C.ar    1  UNL1        0.0541
     19 C         141.1021  139.6286  160.9910 C.ar    1  UNL1        0.0180
     20 C         141.6412  139.4267  159.6058 C.ar    1  UNL1        0.0382
     21 C         142.8106  138.5144  159.3818 C.ar    1  UNL1        0.1386
     22 C         143.4409  137.8039  160.5430 C.ar    1  UNL1        0.0382
     23 C         142.9017  138.0059  161.9281 C.ar    1  UNL1        0.0180
     24 O         143.3498  138.3123  157.9967 O.3     1  UNL1       -0.4754
     25 C         142.4488  137.8123  156.9068 C.3     1  UNL1        0.2068
     26 C         142.2839  136.3375  156.6875 C.3     1  UNL1        0.0646
     27 C         143.1087  135.3651  157.4774 C.3     1  UNL1        0.0759
     28 N         143.4958  134.0471  156.8748 N.3     1  UNL1       -0.2726
     29 C         144.4751  133.2321  157.6666 C.3     1  UNL1        0.0721
     30 C         145.0530  131.8870  157.3393 C.3     1  UNL1        0.0173
     31 C         144.7943  131.0249  156.1395 C.3     1  UNL1        0.0015
     32 C         143.8938  131.2948  154.9705 C.3     1  UNL1        0.0015
     33 C         143.0297  132.4934  154.7127 C.3     1  UNL1        0.0173
     34 C         142.8527  133.7183  155.5603 C.3     1  UNL1        0.0721
@<TRIPOS>BOND
     1     1     2    2
     2     2    10    1
     3    10    11   ar
     4    11    12   ar
     5    12    13    1
     6    12    14   ar
     7    14    15   ar
     8    15    16    1
     9    15    17   ar
    10     2     3   am
    11     3     4    1
    12     4     5    1
    13     5     6    1
    14     6    18    1
    15    18    19   ar
    16    19    20   ar
    17    20    21   ar
    18    21    24    1
    19    24    25    1
    20    25    26    1
    21    26    27    1
    22    27    28    1
    23    28    29    1
    24    29    30    1
    25    30    31    1
    26    31    32    1
    27    32    33    1
    28    33    34    1
    29    21    22   ar
    30    22    23   ar
    31     6     7   am
    32     7     8    2
    33     7     9    1
    34    17    10   ar
    35     9     3    1
    36    23    18   ar
    37    34    28    1
@<TRIPOS>MOLECULE
*****
 34 37 0 0 0
SMALL
GASTEIGER

@<TRIPOS>ATOM
      1 O         143.3073  138.6334  169.3189 O.2     1  UNL1       -0.2699
      2 C         142.4721  139.5233  168.4468 C.2     1  UNL1        0.2496
      3 N         142.5883  139.4336  166.9539 N.am    1  UNL1       -0.2660
      4 C         143.5398  138.4540  166.3333 C.3     1  UNL1        0.1160
      5 C         143.6560  138.3643  164.8404 C.3     1  UNL1        0.1197
      6 N         142.8208  139.2541  163.9683 N.am    1  UNL1       -0.2555
      7 C         141.8694  140.2337  164.5890 C.2     1  UNL1        0.2497
      8 O         141.0342  141.1236  163.7168 O.2     1  UNL1       -0.2727
      9 C         141.7532  140.3234  166.0818 C.3     1  UNL1        0.1799
     10 C         141.5207  140.5029  169.0674 C.ar    1  UNL1        0.0581
     11 C         140.1344  140.0683  169.4407 C.ar    1  UNL1        0.0343
     12 C         139.1829  141.0480  170.0614 C.ar    1  UNL1        0.1425
     13 F         137.7966  140.6134  170.4348 F       1  UNL1       -0.2041
     14 C         139.6178  142.4621  170.3086 C.ar    1  UNL1        0.0592
     15 C         141.0041  142.8966  169.9353 C.ar    1  UNL1        0.1425
     16 F         141.4390  144.3107  170.1825 F       1  UNL1       -0.2041
     17 C         141.9555  141.9169  169.3146 C.ar    1  UNL1        0.0343
     18 C         142.9371  139.1644  162.4756 C.ar    1  UNL1        0.0541
     19 C         142.1202  138.1595  161.7187 C.ar    1  UNL1        0.0180
     20 C         142.2364  138.0697  160.2259 C.ar    1  UNL1        0.0382
     21 C         143.1695  138.9849  159.4899 C.ar    1  UNL1        0.1386
     22 C         143.9865  139.9899  160.2468 C.ar    1  UNL1        0.0382
     23 C         143.8702  140.0796  161.7396 C.ar    1  UNL1        0.0180
     24 O         143.2858  138.8953  157.9971 O.3     1  UNL1       -0.4754
     25 C         142.4877  137.8736  157.2428 C.3     1  UNL1        0.2068
     26 C         143.1708  136.6778  156.6481 C.3     1  UNL1        0.0646
     27 C         142.3985  135.4143  156.4096 C.3     1  UNL1        0.0759
     28 N         143.1169  134.1001  156.3284 N.3     1  UNL1       -0.2726
     29 C         143.9698  133.7505  157.5119 C.3     1  UNL1        0.0721
     30 C         144.8039  132.5236  157.7338 C.3     1  UNL1        0.0173
     31 C         144.9911  131.3435  156.8271 C.3     1  UNL1        0.0015
     32 C         144.3906  131.0986  155.4745 C.3     1  UNL1        0.0015
     33 C         143.4544  131.9735  154.6946 C.3     1  UNL1        0.0173
     34 C         142.8876  133.3093  155.0747 C.3     1  UNL1        0.0721
@<TRIPOS>BOND
     1     1     2    2
     2     2    10    1
     3    10    11   ar
     4    11    12   ar
     5    12    13    1
     6    12    14   ar
     7    14    15   ar
     8    15    16    1
     9    15    17   ar
    10     2     3   am
    11     3     4    1
    12     4     5    1
    13     5     6    1
    14     6    18    1
    15    18    19   ar
    16    19    20   ar
    17    20    21   ar
    18    21    24    1
    19    24    25    1
    20    25    26    1
    21    26    27    1
    22    27    28    1
    23    28    29    1
    24    29    30    1
    25    30    31    1
    26    31    32    1
    27    32    33    1
    28    33    34    1
    29    21    22   ar
    30    22    23   ar
    31     6     7   am
    32     7     8    2
    33     7     9    1
    34    17    10   ar
    35     9     3    1
    36    23    18   ar
    37    34    28    1
@<TRIPOS>MOLECULE
*****
 34 37 0 0 0
SMALL
GASTEIGER

@<TRIPOS>ATOM
      1 O         139.6315  138.8737  156.8293 O.2     1  UNL1       -0.2699
      2 C         138.8915  139.9027  157.6315 C.2     1  UNL1        0.2496
      3 N         138.9045  139.8370  159.1300 N.am    1  UNL1       -0.2660
      4 C         139.6575  138.7424  159.8262 C.3     1  UNL1        0.1160
      5 C         139.6706  138.6768  161.3248 C.3     1  UNL1        0.1197
      6 N         138.9305  139.7057  162.1271 N.am    1  UNL1       -0.2555
      7 C         138.1774  140.8004  161.4308 C.2     1  UNL1        0.2497
      8 O         137.4374  141.8293  162.2330 O.2     1  UNL1       -0.2727
      9 C         138.1645  140.8660  159.9323 C.3     1  UNL1        0.1799
     10 C         138.1384  140.9973  156.9352 C.ar    1  UNL1        0.0581
     11 C         136.7345  140.7593  156.4636 C.ar    1  UNL1        0.0343
     12 C         135.9815  141.8539  155.7674 C.ar    1  UNL1        0.1425
     13 F         134.5776  141.6159  155.2958 F       1  UNL1       -0.2041
     14 C         136.6324  143.1865  155.5428 C.ar    1  UNL1        0.0592
     15 C         138.0363  143.4246  156.0144 C.ar    1  UNL1        0.1425
     16 F         138.6871  144.7571  155.7898 F       1  UNL1       -0.2041
     17 C         138.7893  142.3298  156.7106 C.ar    1  UNL1        0.0343
     18 C         138.9435  139.6401  163.6255 C.ar    1  UNL1        0.0541
     19 C         138.5580  138.3699  164.3240 C.ar    1  UNL1        0.0180
     20 C         138.5710  138.3042  165.8225 C.ar    1  UNL1        0.0382
     21 C         138.9696  139.5088  166.6226 C.ar    1  UNL1        0.1386
     22 C         139.3551  140.7791  165.9241 C.ar    1  UNL1        0.0382
     23 C         139.3421  140.8447  164.4256 C.ar    1  UNL1        0.0180
     24 O         138.9826  139.4432  168.1211 O.3     1  UNL1       -0.4754
     25 C         139.8536  140.3794  168.9051 C.3     1  UNL1        0.2068
     26 C         141.0268  139.8464  169.6731 C.3     1  UNL1        0.0646
     27 C         142.4124  139.9808  169.1147 C.3     1  UNL1        0.0759
     28 N         142.6086  140.2572  167.6535 N.3     1  UNL1       -0.2726
     29 C         142.7736  141.7008  167.2806 C.3     1  UNL1        0.0721
     30 C         142.9846  142.2971  165.9204 C.3     1  UNL1        0.0173
     31 C         143.0828  141.5973  164.5975 C.3     1  UNL1        0.0015
     32 C         142.9941  140.1282  164.3076 C.3     1  UNL1        0.0015
     33 C         142.7855  138.9961  165.2693 C.3     1  UNL1        0.0173
     34 C         142.6139  139.0536  166.7584 C.3     1  UNL1        0.0721
@<TRIPOS>BOND
     1     1     2    2
     2     2    10    1
     3    10    11   ar
     4    11    12   ar
     5    12    13    1
     6    12    14   ar
     7    14    15   ar
     8    15    16    1
     9    15    17   ar
    10     2     3   am
    11     3     4    1
    12     4     5    1
    13     5     6    1
    14     6    18    1
    15    18    19   ar
    16    19    20   ar
    17    20    21   ar
    18    21    24    1
    19    24    25    1
    20    25    26    1
    21    26    27    1
    22    27    28    1
    23    28    29    1
    24    29    30    1
    25    30    31    1
    26    31    32    1
    27    32    33    1
    28    33    34    1
    29    21    22   ar
    30    22    23   ar
    31     6     7   am
    32     7     8    2
    33     7     9    1
    34    17    10   ar
    35     9     3    1
    36    23    18   ar
    37    34    28    1
@<TRIPOS>MOLECULE
*****
 34 37 0 0 0
SMALL
GASTEIGER

@<TRIPOS>ATOM
      1 O         140.0268  140.5710  156.6209 O.2     1  UNL1       -0.2699
      2 C         140.6442  139.4979  157.4677 C.2     1  UNL1        0.2496
      3 N         140.3777  139.4608  158.9434 N.am    1  UNL1       -0.2660
      4 C         139.4937  140.4967  159.5722 C.3     1  UNL1        0.1160
      5 C         139.2271  140.4596  161.0479 C.3     1  UNL1        0.1197
      6 N         139.8445  139.3865  161.8948 N.am    1  UNL1       -0.2555
      7 C         140.7285  138.3505  161.2660 C.2     1  UNL1        0.2497
      8 O         141.3460  137.2774  162.1129 O.2     1  UNL1       -0.2727
      9 C         140.9951  138.3877  159.7903 C.3     1  UNL1        0.1799
     10 C         141.5282  138.4619  156.8390 C.ar    1  UNL1        0.0581
     11 C         142.9096  138.8302  156.3850 C.ar    1  UNL1        0.0343
     12 C         143.7936  137.7942  155.7562 C.ar    1  UNL1        0.1425
     13 F         145.1750  138.1625  155.3022 F       1  UNL1       -0.2041
     14 C         143.2961  136.3899  155.5815 C.ar    1  UNL1        0.0592
     15 C         141.9147  136.0216  156.0356 C.ar    1  UNL1        0.1425
     16 F         141.4173  134.6174  155.8609 F       1  UNL1       -0.2041
     17 C         141.0308  137.0577  156.6643 C.ar    1  UNL1        0.0343
     18 C         139.5780  139.3493  163.3704 C.ar    1  UNL1        0.0541
     19 C         140.0059  140.4949  164.2389 C.ar    1  UNL1        0.0180
     20 C         139.7393  140.4579  165.7146 C.ar    1  UNL1        0.0382
     21 C         139.0448  139.2751  166.3217 C.ar    1  UNL1        0.1386
     22 C         138.6169  138.1293  165.4532 C.ar    1  UNL1        0.0382
     23 C         138.8835  138.1665  163.9775 C.ar    1  UNL1        0.0180
     24 O         138.7782  139.2379  167.7974 O.3     1  UNL1       -0.4754
     25 C         139.4245  140.2450  168.7018 C.3     1  UNL1        0.2068
     26 C         140.7126  139.9127  169.3952 C.3     1  UNL1        0.0646
     27 C         141.9582  140.6839  169.0733 C.3     1  UNL1        0.0759
     28 N         142.5939  140.5516  167.7211 N.3     1  UNL1       -0.2726
     29 C         142.8486  139.1483  167.2563 C.3     1  UNL1        0.0721
     30 C         143.4632  138.6868  165.9681 C.3     1  UNL1        0.0173
     31 C         143.9747  139.5146  164.8267 C.3     1  UNL1        0.0015
     32 C         143.9981  141.0083  164.6914 C.3     1  UNL1        0.0015
     33 C         143.5157  142.0432  165.6642 C.3     1  UNL1        0.0173
     34 C         142.8908  141.8398  167.0126 C.3     1  UNL1        0.0721
@<TRIPOS>BOND
     1     1     2    2
     2     2    10    1
     3    10    11   ar
     4    11    12   ar
     5    12    13    1
     6    12    14   ar
     7    14    15   ar
     8    15    16    1
     9    15    17   ar
    10     2     3   am
    11     3     4    1
    12     4     5    1
    13     5     6    1
    14     6    18    1
    15    18    19   ar
    16    19    20   ar
    17    20    21   ar
    18    21    24    1
    19    24    25    1
    20    25    26    1
    21    26    27    1
    22    27    28    1
    23    28    29    1
    24    29    30    1
    25    30    31    1
    26    31    32    1
    27    32    33    1
    28    33    34    1
    29    21    22   ar
    30    22    23   ar
    31     6     7   am
    32     7     8    2
    33     7     9    1
    34    17    10   ar
    35     9     3    1
    36    23    18   ar
    37    34    28    1
@<TRIPOS>MOLECULE
*****
 34 37 0 0 0
SMALL
GASTEIGER

@<TRIPOS>ATOM
      1 O         143.3493  138.6951  168.3076 O.2     1  UNL1       -0.2699
      2 C         142.2253  139.4904  167.7126 C.2     1  UNL1        0.2496
      3 N         141.8899  139.3425  166.2580 N.am    1  UNL1       -0.2660
      4 C         142.6786  138.3994  165.3986 C.3     1  UNL1        0.1160
      5 C         142.3432  138.2515  163.9440 C.3     1  UNL1        0.1197
      6 N         141.2192  139.0468  163.3489 N.am    1  UNL1       -0.2555
      7 C         140.4305  139.9899  164.2083 C.2     1  UNL1        0.2497
      8 O         139.3065  140.7851  163.6132 O.2     1  UNL1       -0.2727
      9 C         140.7659  140.1377  165.6628 C.3     1  UNL1        0.1799
     10 C         141.4366  140.4334  168.5719 C.ar    1  UNL1        0.0581
     11 C         142.0085  141.7708  168.9382 C.ar    1  UNL1        0.0343
     12 C         141.2198  142.7140  169.7976 C.ar    1  UNL1        0.1425
     13 F         141.7917  144.0514  170.1639 F       1  UNL1       -0.2041
     14 C         139.8591  142.3195  170.2907 C.ar    1  UNL1        0.0592
     15 C         139.2872  140.9821  169.9244 C.ar    1  UNL1        0.1425
     16 F         137.9267  140.5877  170.4175 F       1  UNL1       -0.2041
     17 C         140.0760  140.0391  169.0650 C.ar    1  UNL1        0.0343
     18 C         140.8838  138.8989  161.8944 C.ar    1  UNL1        0.0541
     19 C         139.5465  138.3575  161.4843 C.ar    1  UNL1        0.0180
     20 C         139.2111  138.2096  160.0298 C.ar    1  UNL1        0.0382
     21 C         140.2131  138.6032  158.9853 C.ar    1  UNL1        0.1386
     22 C         141.5506  139.1447  159.3953 C.ar    1  UNL1        0.0382
     23 C         141.8859  139.2925  160.8499 C.ar    1  UNL1        0.0180
     24 O         139.8778  138.4554  157.5307 O.3     1  UNL1       -0.4754
     25 C         140.9458  138.0705  156.5503 C.3     1  UNL1        0.2068
     26 C         141.2346  136.6224  156.2860 C.3     1  UNL1        0.0646
     27 C         142.5388  136.0255  156.7250 C.3     1  UNL1        0.0759
     28 N         142.7583  134.5452  156.6226 N.3     1  UNL1       -0.2726
     29 C         143.8702  133.9925  157.4644 C.3     1  UNL1        0.0721
     30 C         144.3353  132.5713  157.5834 C.3     1  UNL1        0.0173
     31 C         143.8037  131.3521  156.8902 C.3     1  UNL1        0.0015
     32 C         142.6755  131.2527  155.9066 C.3     1  UNL1        0.0015
     33 C         141.8003  132.3480  155.3734 C.3     1  UNL1        0.0173
     34 C         141.8373  133.8133  155.6921 C.3     1  UNL1        0.0721
@<TRIPOS>BOND
     1     1     2    2
     2     2    10    1
     3    10    11   ar
     4    11    12   ar
     5    12    13    1
     6    12    14   ar
     7    14    15   ar
     8    15    16    1
     9    15    17   ar
    10     2     3   am
    11     3     4    1
    12     4     5    1
    13     5     6    1
    14     6    18    1
    15    18    19   ar
    16    19    20   ar
    17    20    21   ar
    18    21    24    1
    19    24    25    1
    20    25    26    1
    21    26    27    1
    22    27    28    1
    23    28    29    1
    24    29    30    1
    25    30    31    1
    26    31    32    1
    27    32    33    1
    28    33    34    1
    29    21    22   ar
    30    22    23   ar
    31     6     7   am
    32     7     8    2
    33     7     9    1
    34    17    10   ar
    35     9     3    1
    36    23    18   ar
    37    34    28    1
@<TRIPOS>MOLECULE
*****
 34 37 0 0 0
SMALL
GASTEIGER

@<TRIPOS>ATOM
      1 O         143.3134  138.5377  169.2680 O.2     1  UNL1       -0.2699
      2 C         142.5398  139.4935  168.4088 C.2     1  UNL1        0.2496
      3 N         142.7236  139.4810  166.9201 N.am    1  UNL1       -0.2660
      4 C         143.6809  138.5128  166.2907 C.3     1  UNL1        0.1160
      5 C         143.8647  138.5003  164.8020 C.3     1  UNL1        0.1197
      6 N         143.0912  139.4560  163.9428 N.am    1  UNL1       -0.2555
      7 C         142.1339  140.4243  164.5722 C.2     1  UNL1        0.2497
      8 O         141.3604  141.3800  163.7129 O.2     1  UNL1       -0.2727
      9 C         141.9502  140.4367  166.0609 C.3     1  UNL1        0.1799
     10 C         141.5826  140.4617  169.0382 C.ar    1  UNL1        0.0581
     11 C         142.0149  141.8711  169.3150 C.ar    1  UNL1        0.0343
     12 C         141.0575  142.8394  169.9443 C.ar    1  UNL1        0.1425
     13 F         141.4898  144.2488  170.2211 F       1  UNL1       -0.2041
     14 C         139.6679  142.3981  170.2969 C.ar    1  UNL1        0.0592
     15 C         139.2356  140.9887  170.0201 C.ar    1  UNL1        0.1425
     16 F         137.8461  140.5475  170.3727 F       1  UNL1       -0.2041
     17 C         140.1930  140.0205  169.3907 C.ar    1  UNL1        0.0343
     18 C         143.2750  139.4435  162.4542 C.ar    1  UNL1        0.0541
     19 C         143.6621  140.7019  161.7357 C.ar    1  UNL1        0.0180
     20 C         143.8459  140.6895  160.2470 C.ar    1  UNL1        0.0382
     21 C         143.6426  139.4185  159.4769 C.ar    1  UNL1        0.1386
     22 C         143.2554  138.1599  160.1954 C.ar    1  UNL1        0.0382
     23 C         143.0717  138.1725  161.6840 C.ar    1  UNL1        0.0180
     24 O         143.8264  139.4059  157.9882 O.3     1  UNL1       -0.4754
     25 C         142.6903  139.0026  157.0958 C.3     1  UNL1        0.2068
     26 C         142.8799  137.9069  156.0889 C.3     1  UNL1        0.0646
     27 C         141.7977  136.8910  155.8732 C.3     1  UNL1        0.0759
     28 N         142.0907  135.4318  156.0600 N.3     1  UNL1       -0.2726
     29 C         141.3064  134.4941  155.1906 C.3     1  UNL1        0.0721
     30 C         141.3669  132.9962  155.1380 C.3     1  UNL1        0.0173
     31 C         142.2266  132.0662  155.9415 C.3     1  UNL1        0.0015
     32 C         143.2382  132.4042  156.9963 C.3     1  UNL1        0.0015
     33 C         143.6398  133.7558  157.5080 C.3     1  UNL1        0.0173
     34 C         143.1291  135.1032  157.0912 C.3     1  UNL1        0.0721
@<TRIPOS>BOND
     1     1     2    2
     2     2    10    1
     3    10    11   ar
     4    11    12   ar
     5    12    13    1
     6    12    14   ar
     7    14    15   ar
     8    15    16    1
     9    15    17   ar
    10     2     3   am
    11     3     4    1
    12     4     5    1
    13     5     6    1
    14     6    18    1
    15    18    19   ar
    16    19    20   ar
    17    20    21   ar
    18    21    24    1
    19    24    25    1
    20    25    26    1
    21    26    27    1
    22    27    28    1
    23    28    29    1
    24    29    30    1
    25    30    31    1
    26    31    32    1
    27    32    33    1
    28    33    34    1
    29    21    22   ar
    30    22    23   ar
    31     6     7   am
    32     7     8    2
    33     7     9    1
    34    17    10   ar
    35     9     3    1
    36    23    18   ar
    37    34    28    1
