@<TRIPOS>MOLECULE
*****
 38 42 0 0 0
SMALL
GASTEIGER

@<TRIPOS>ATOM
      1 C         141.2675  137.6814  162.1160 C.ar    1  UNL1       -0.0214
      2 C         142.6236  137.6728  161.4749 C.ar    1  UNL1       -0.0011
      3 C         142.7907  138.1628  160.0671 C.ar    1  UNL1        0.0366
      4 C         141.6018  138.6614  159.3004 C.ar    1  UNL1        0.1385
      5 C         140.2458  138.6701  159.9414 C.ar    1  UNL1        0.0366
      6 C         140.0786  138.1800  161.3493 C.ar    1  UNL1       -0.0011
      7 C         141.1003  137.1914  163.5238 C.3     1  UNL1        0.0375
      8 N         140.6105  139.5597  166.2192 N.am    1  UNL1       -0.2546
      9 C         139.7251  138.9359  165.1814 C.2     1  UNL1        0.2315
     10 O         138.2702  139.0347  164.8302 O.2     1  UNL1       -0.2745
     11 C         140.8974  138.1724  164.6403 C.3     1  UNL1        0.1052
     12 C         141.7828  138.7962  165.6780 C.3     1  UNL1        0.1249
     13 C         140.0019  142.5026  169.5686 C.ar    1  UNL1        0.1388
     14 C         140.5369  142.9700  168.2476 C.ar    1  UNL1        0.0382
     15 C         140.7398  141.9890  167.1311 C.ar    1  UNL1        0.0180
     16 C         140.4076  140.5407  167.3357 C.ar    1  UNL1        0.0543
     17 C         139.8726  140.0733  168.6567 C.ar    1  UNL1        0.0180
     18 C         139.6697  141.0543  169.7732 C.ar    1  UNL1        0.0382
     19 C         140.0585  144.9433  170.4574 C.3     1  UNL1        0.2525
     20 O         139.7990  143.4836  170.6851 O.3     1  UNL1       -0.4714
     21 C         143.2378  138.6974  166.0292 C.2     1  UNL1        0.0692
     22 O         144.2812  138.9978  164.9942 O.co2   1  UNL1       -0.5475
     23 O         143.6494  138.2983  167.4153 O.co2   1  UNL1       -0.5475
     24 O         141.7690  139.1515  157.8925 O.3     1  UNL1       -0.4750
     25 C         140.8743  140.2330  157.3636 C.3     1  UNL1        0.2118
     26 C         141.0296  141.6417  157.8547 C.3     1  UNL1        0.0960
     27 C         140.1000  142.1773  158.9031 C.ar    1  UNL1        0.0960
     28 N         140.4891  142.6260  160.2805 N.ar    1  UNL1       -0.2129
     29 C         139.2477  143.0841  160.9868 C.ar    1  UNL1        0.2289
     30 O         138.0913  142.9186  160.0459 O.2     1  UNL1       -0.4392
     31 C         138.6180  142.3581  158.7581 C.ar    1  UNL1        0.1387
     32 C         137.8055  142.0352  157.5392 C.3     1  UNL1        0.0738
     33 C         139.1753  143.6147  162.3880 C.ar    1  UNL1        0.0535
     34 C         140.4286  144.0372  163.0955 C.ar    1  UNL1        0.0046
     35 C         140.3562  144.5677  164.4967 C.ar    1  UNL1        0.0002
     36 C         139.0306  144.6757  165.1903 C.ar    1  UNL1        0.0000
     37 C         137.7773  144.2532  164.4828 C.ar    1  UNL1        0.0002
     38 C         137.8497  143.7227  163.0816 C.ar    1  UNL1        0.0046
@<TRIPOS>UNITY_ATOM_ATTR
22 1
charge -1
@<TRIPOS>BOND
     1    19    20    1
     2    20    13    1
     3    13    14   ar
     4    14    15   ar
     5    15    16   ar
     6    16     8    1
     7     8     9   am
     8     9    10    2
     9     9    11    1
    10    11     7    1
    11     7     1    1
    12     1     2   ar
    13     2     3   ar
    14     3     4   ar
    15     4    24    1
    16    24    25    1
    17    25    26    1
    18    26    27    1
    19    27    28   ar
    20    28    29   ar
    21    29    33    1
    22    33    34   ar
    23    34    35   ar
    24    35    36   ar
    25    36    37   ar
    26    37    38   ar
    27    29    30   ar
    28    30    31   ar
    29    31    32    1
    30     4     5   ar
    31     5     6   ar
    32    11    12    1
    33    12    21    1
    34    21    22   ar
    35    21    23   ar
    36    16    17   ar
    37    17    18   ar
    38    18    13   ar
    39    12     8    1
    40     6     1   ar
    41    31    27   ar
    42    38    33   ar
@<TRIPOS>MOLECULE
*****
 38 42 0 0 0
SMALL
GASTEIGER

@<TRIPOS>ATOM
      1 C         138.7169  138.5147  161.8288 C.ar    1  UNL1       -0.0214
      2 C         139.9466  138.2748  161.0038 C.ar    1  UNL1       -0.0011
      3 C         140.0566  138.8694  159.6311 C.ar    1  UNL1        0.0366
      4 C         138.9370  139.7039  159.0833 C.ar    1  UNL1        0.1385
      5 C         137.7074  139.9438  159.9082 C.ar    1  UNL1        0.0366
      6 C         137.5973  139.3492  161.2809 C.ar    1  UNL1       -0.0011
      7 C         138.6069  137.9202  163.2015 C.3     1  UNL1        0.0375
      8 N         139.7187  139.8061  166.0860 N.am    1  UNL1       -0.2546
      9 C         138.5772  138.8749  165.8032 C.2     1  UNL1        0.2315
     10 O         137.4234  138.3393  166.5981 O.2     1  UNL1       -0.2745
     11 C         139.0674  138.7013  164.3963 C.3     1  UNL1        0.1052
     12 C         140.2090  139.6324  164.6790 C.3     1  UNL1        0.1249
     13 C         141.1004  142.1496  169.6706 C.ar    1  UNL1        0.1388
     14 C         140.9373  142.8328  168.3452 C.ar    1  UNL1        0.0382
     15 C         140.4768  142.0516  167.1504 C.ar    1  UNL1        0.0180
     16 C         140.1793  140.5873  167.2809 C.ar    1  UNL1        0.0543
     17 C         140.3423  139.9041  168.6062 C.ar    1  UNL1        0.0180
     18 C         140.8029  140.6853  169.8011 C.ar    1  UNL1        0.0382
     19 C         142.9669  143.4500  170.9256 C.3     1  UNL1        0.2525
     20 O         141.5609  142.9308  170.8654 O.3     1  UNL1       -0.4714
     21 C         141.3627  140.1681  163.8841 C.2     1  UNL1        0.0692
     22 O         141.1134  141.0963  162.7324 O.co2   1  UNL1       -0.5475
     23 O         142.7658  139.7755  164.2409 O.co2   1  UNL1       -0.5475
     24 O         139.0471  140.2985  157.7105 O.3     1  UNL1       -0.4750
     25 C         140.2894  141.0380  157.3109 C.3     1  UNL1        0.2118
     26 C         140.2799  142.5363  157.2393 C.3     1  UNL1        0.0960
     27 C         140.0325  143.3449  158.4783 C.ar    1  UNL1        0.0960
     28 N         139.5644  142.8120  159.8000 N.ar    1  UNL1       -0.2129
     29 C         139.4523  143.9661  160.7516 C.ar    1  UNL1        0.2289
     30 O         139.8512  145.2122  160.0180 O.2     1  UNL1       -0.4392
     31 C         140.2098  144.8283  158.6130 C.ar    1  UNL1        0.1387
     32 C         140.6656  145.7635  157.5324 C.3     1  UNL1        0.0738
     33 C         139.0177  143.8878  162.1851 C.ar    1  UNL1        0.0535
     34 C         138.1336  142.7650  162.6405 C.ar    1  UNL1        0.0046
     35 C         137.6990  142.6867  164.0740 C.ar    1  UNL1        0.0002
     36 C         138.1485  143.7313  165.0521 C.ar    1  UNL1        0.0000
     37 C         139.0326  144.8542  164.5968 C.ar    1  UNL1        0.0002
     38 C         139.4672  144.9325  163.1632 C.ar    1  UNL1        0.0046
@<TRIPOS>UNITY_ATOM_ATTR
22 1
charge -1
@<TRIPOS>BOND
     1    19    20    1
     2    20    13    1
     3    13    14   ar
     4    14    15   ar
     5    15    16   ar
     6    16     8    1
     7     8     9   am
     8     9    10    2
     9     9    11    1
    10    11     7    1
    11     7     1    1
    12     1     2   ar
    13     2     3   ar
    14     3     4   ar
    15     4    24    1
    16    24    25    1
    17    25    26    1
    18    26    27    1
    19    27    28   ar
    20    28    29   ar
    21    29    33    1
    22    33    34   ar
    23    34    35   ar
    24    35    36   ar
    25    36    37   ar
    26    37    38   ar
    27    29    30   ar
    28    30    31   ar
    29    31    32    1
    30     4     5   ar
    31     5     6   ar
    32    11    12    1
    33    12    21    1
    34    21    22   ar
    35    21    23   ar
    36    16    17   ar
    37    17    18   ar
    38    18    13   ar
    39    12     8    1
    40     6     1   ar
    41    31    27   ar
    42    38    33   ar
@<TRIPOS>MOLECULE
*****
 38 42 0 0 0
SMALL
GASTEIGER

@<TRIPOS>ATOM
      1 C         142.8346  143.9695  161.8233 C.ar    1  UNL1       -0.0214
      2 C         141.9395  143.9645  160.6197 C.ar    1  UNL1       -0.0011
      3 C         142.3571  143.2348  159.3775 C.ar    1  UNL1        0.0366
      4 C         143.6698  142.5101  159.3388 C.ar    1  UNL1        0.1385
      5 C         144.5650  142.5151  160.5424 C.ar    1  UNL1        0.0366
      6 C         144.1474  143.2448  161.7847 C.ar    1  UNL1       -0.0011
      7 C         142.4170  144.6991  163.0655 C.3     1  UNL1        0.0375
      8 N         141.0750  142.8596  165.8814 N.am    1  UNL1       -0.2546
      9 C         142.3964  142.8984  165.1724 C.2     1  UNL1        0.2315
     10 O         143.7091  142.1915  165.3362 O.2     1  UNL1       -0.2745
     11 C         141.8612  143.9372  164.2319 C.3     1  UNL1        0.1052
     12 C         140.5398  143.8983  164.9408 C.3     1  UNL1        0.1249
     13 C         139.4073  140.5737  169.3804 C.ar    1  UNL1        0.1388
     14 C         140.0159  141.9284  169.5909 C.ar    1  UNL1        0.0382
     15 C         140.5718  142.6903  168.4246 C.ar    1  UNL1        0.0180
     16 C         140.5191  142.0976  167.0477 C.ar    1  UNL1        0.0543
     17 C         139.9106  140.7429  166.8372 C.ar    1  UNL1        0.0180
     18 C         139.3547  139.9809  168.0035 C.ar    1  UNL1        0.0382
     19 C         137.3940  139.4594  170.5865 C.3     1  UNL1        0.2525
     20 O         138.8514  139.8117  170.5468 O.3     1  UNL1       -0.4714
     21 C         139.2271  144.6053  164.7770 C.2     1  UNL1        0.0692
     22 O         138.5324  145.1841  165.9739 O.co2   1  UNL1       -0.5475
     23 O         138.6089  144.7336  163.4163 O.co2   1  UNL1       -0.5475
     24 O         144.0874  141.7804  158.0965 O.3     1  UNL1       -0.4750
     25 C         144.0435  140.2816  158.0565 C.3     1  UNL1        0.2118
     26 C         142.7915  139.5793  157.6217 C.3     1  UNL1        0.0960
     27 C         141.7394  139.2278  158.6315 C.ar    1  UNL1        0.0960
     28 N         141.9811  138.8644  160.0666 N.ar    1  UNL1       -0.2129
     29 C         140.6521  138.5900  160.7055 C.ar    1  UNL1        0.2289
     30 O         139.5889  138.7838  159.6653 O.2     1  UNL1       -0.4392
     31 C         140.2609  139.1779  158.3835 C.ar    1  UNL1        0.1387
     32 C         139.5749  139.4709  157.0820 C.3     1  UNL1        0.0738
     33 C         140.4258  138.1917  162.1339 C.ar    1  UNL1        0.0535
     34 C         141.5969  137.9384  163.0363 C.ar    1  UNL1        0.0046
     35 C         141.3707  137.5401  164.4646 C.ar    1  UNL1        0.0002
     36 C         139.9734  137.3952  164.9905 C.ar    1  UNL1        0.0000
     37 C         138.8024  137.6485  164.0882 C.ar    1  UNL1        0.0002
     38 C         139.0286  138.0468  162.6598 C.ar    1  UNL1        0.0046
@<TRIPOS>UNITY_ATOM_ATTR
22 1
charge -1
@<TRIPOS>BOND
     1    19    20    1
     2    20    13    1
     3    13    14   ar
     4    14    15   ar
     5    15    16   ar
     6    16     8    1
     7     8     9   am
     8     9    10    2
     9     9    11    1
    10    11     7    1
    11     7     1    1
    12     1     2   ar
    13     2     3   ar
    14     3     4   ar
    15     4    24    1
    16    24    25    1
    17    25    26    1
    18    26    27    1
    19    27    28   ar
    20    28    29   ar
    21    29    33    1
    22    33    34   ar
    23    34    35   ar
    24    35    36   ar
    25    36    37   ar
    26    37    38   ar
    27    29    30   ar
    28    30    31   ar
    29    31    32    1
    30     4     5   ar
    31     5     6   ar
    32    11    12    1
    33    12    21    1
    34    21    22   ar
    35    21    23   ar
    36    16    17   ar
    37    17    18   ar
    38    18    13   ar
    39    12     8    1
    40     6     1   ar
    41    31    27   ar
    42    38    33   ar
@<TRIPOS>MOLECULE
*****
 38 42 0 0 0
SMALL
GASTEIGER

@<TRIPOS>ATOM
      1 C         144.0482  139.4501  161.6213 C.ar    1  UNL1       -0.0214
      2 C         144.0191  140.3377  160.4124 C.ar    1  UNL1       -0.0011
      3 C         143.2244  139.9355  159.2055 C.ar    1  UNL1        0.0366
      4 C         142.4588  138.6456  159.2074 C.ar    1  UNL1        0.1385
      5 C         142.4878  137.7579  160.4162 C.ar    1  UNL1        0.0366
      6 C         143.2826  138.1602  161.6232 C.ar    1  UNL1       -0.0011
      7 C         144.8429  139.8523  162.8281 C.3     1  UNL1        0.0375
      8 N         143.1717  141.2979  165.6972 N.am    1  UNL1       -0.2546
      9 C         143.8611  141.8469  164.4833 C.2     1  UNL1        0.2315
     10 O         144.1437  143.2220  163.9551 O.2     1  UNL1       -0.2745
     11 C         144.1507  140.4511  164.0165 C.3     1  UNL1        0.1052
     12 C         143.4614  139.9020  165.2303 C.3     1  UNL1        0.1249
     13 C         141.0950  143.0941  169.2624 C.ar    1  UNL1        0.1388
     14 C         142.5364  142.6904  169.3587 C.ar    1  UNL1        0.0382
     15 C         143.2287  142.0917  168.1703 C.ar    1  UNL1        0.0180
     16 C         142.4795  141.8966  166.8856 C.ar    1  UNL1        0.0543
     17 C         141.0381  142.3003  166.7892 C.ar    1  UNL1        0.0180
     18 C         140.3458  142.8991  167.9776 C.ar    1  UNL1        0.0382
     19 C         139.2880  142.9480  171.1234 C.3     1  UNL1        0.2525
     20 O         140.4028  143.6929  170.4508 O.3     1  UNL1       -0.4714
     21 C         143.1787  138.5269  165.7586 C.2     1  UNL1        0.0692
     22 O         143.9481  138.0024  166.9347 O.co2   1  UNL1       -0.5475
     23 O         142.1268  137.6761  165.1108 O.co2   1  UNL1       -0.5475
     24 O         141.6640  138.2433  158.0004 O.3     1  UNL1       -0.4750
     25 C         140.1668  138.1878  158.0727 C.3     1  UNL1        0.2118
     26 C         139.3920  139.3942  158.5133 C.3     1  UNL1        0.0960
     27 C         139.3753  139.7873  159.9608 C.ar    1  UNL1        0.0960
     28 N         138.9526  138.9159  161.1062 N.ar    1  UNL1       -0.2129
     29 C         139.0943  139.7109  162.3703 C.ar    1  UNL1        0.2289
     30 O         139.6046  141.0736  162.0061 O.2     1  UNL1       -0.4392
     31 C         139.7783  141.1208  160.5170 C.ar    1  UNL1        0.1387
     32 C         140.2688  142.2954  159.7233 C.3     1  UNL1        0.0738
     33 C         138.7808  139.2279  163.7554 C.ar    1  UNL1        0.0535
     34 C         138.8617  137.7648  164.0757 C.ar    1  UNL1        0.0046
     35 C         138.5482  137.2819  165.4608 C.ar    1  UNL1        0.0002
     36 C         138.1538  138.2621  166.5256 C.ar    1  UNL1        0.0000
     37 C         138.0729  139.7252  166.2053 C.ar    1  UNL1        0.0002
     38 C         138.3865  140.2081  164.8202 C.ar    1  UNL1        0.0046
@<TRIPOS>UNITY_ATOM_ATTR
22 1
charge -1
@<TRIPOS>BOND
     1    19    20    1
     2    20    13    1
     3    13    14   ar
     4    14    15   ar
     5    15    16   ar
     6    16     8    1
     7     8     9   am
     8     9    10    2
     9     9    11    1
    10    11     7    1
    11     7     1    1
    12     1     2   ar
    13     2     3   ar
    14     3     4   ar
    15     4    24    1
    16    24    25    1
    17    25    26    1
    18    26    27    1
    19    27    28   ar
    20    28    29   ar
    21    29    33    1
    22    33    34   ar
    23    34    35   ar
    24    35    36   ar
    25    36    37   ar
    26    37    38   ar
    27    29    30   ar
    28    30    31   ar
    29    31    32    1
    30     4     5   ar
    31     5     6   ar
    32    11    12    1
    33    12    21    1
    34    21    22   ar
    35    21    23   ar
    36    16    17   ar
    37    17    18   ar
    38    18    13   ar
    39    12     8    1
    40     6     1   ar
    41    31    27   ar
    42    38    33   ar
@<TRIPOS>MOLECULE
*****
 38 42 0 0 0
SMALL
GASTEIGER

@<TRIPOS>ATOM
      1 C         144.0759  139.4760  162.0715 C.ar    1  UNL1       -0.0214
      2 C         143.6798  140.6055  161.1674 C.ar    1  UNL1       -0.0011
      3 C         142.9711  140.3198  159.8766 C.ar    1  UNL1        0.0366
      4 C         142.6584  138.9046  159.4900 C.ar    1  UNL1        0.1385
      5 C         143.0545  137.7751  160.3941 C.ar    1  UNL1        0.0366
      6 C         143.7632  138.0608  161.6849 C.ar    1  UNL1       -0.0011
      7 C         144.7846  139.7617  163.3622 C.3     1  UNL1        0.0375
      8 N         143.0118  141.3584  166.0865 N.am    1  UNL1       -0.2546
      9 C         143.1215  139.9540  165.5711 C.2     1  UNL1        0.2315
     10 O         142.5424  138.6292  165.9706 O.2     1  UNL1       -0.2745
     11 C         144.0503  140.4231  164.4906 C.3     1  UNL1        0.1052
     12 C         143.9406  141.8275  165.0060 C.3     1  UNL1        0.1249
     13 C         140.8088  143.3426  169.4717 C.ar    1  UNL1        0.1388
     14 C         140.1272  143.1376  168.1513 C.ar    1  UNL1        0.0382
     15 C         140.8616  142.4762  167.0229 C.ar    1  UNL1        0.0180
     16 C         142.2775  142.0198  167.2149 C.ar    1  UNL1        0.0543
     17 C         142.9590  142.2248  168.5352 C.ar    1  UNL1        0.0180
     18 C         142.2247  142.8862  169.6637 C.ar    1  UNL1        0.0382
     19 C         139.0726  143.2263  171.4010 C.3     1  UNL1        0.2525
     20 O         140.0745  144.0040  170.6001 O.3     1  UNL1       -0.4714
     21 C         144.5197  143.1522  164.6064 C.2     1  UNL1        0.0692
     22 O         144.4870  143.5825  163.1697 O.co2   1  UNL1       -0.5475
     23 O         145.1316  144.0468  165.6434 O.co2   1  UNL1       -0.5475
     24 O         141.9496  138.6189  158.1992 O.3     1  UNL1       -0.4750
     25 C         140.7196  139.3945  157.8313 C.3     1  UNL1        0.2118
     26 C         139.5547  139.4450  158.7750 C.3     1  UNL1        0.0960
     27 C         139.1743  140.7407  159.4282 C.ar    1  UNL1        0.0960
     28 N         139.4272  141.1145  160.8587 N.ar    1  UNL1       -0.2129
     29 C         138.8834  142.4947  161.0802 C.ar    1  UNL1        0.2289
     30 O         138.2944  142.9740  159.7867 O.2     1  UNL1       -0.4392
     31 C         138.4741  141.8899  158.7656 C.ar    1  UNL1        0.1387
     32 C         138.0315  141.9453  157.3334 C.3     1  UNL1        0.0738
     33 C         138.9218  143.2612  162.3691 C.ar    1  UNL1        0.0535
     34 C         140.1610  144.0109  162.7590 C.ar    1  UNL1        0.0046
     35 C         140.1995  144.7774  164.0479 C.ar    1  UNL1        0.0002
     36 C         138.9987  144.7941  164.9466 C.ar    1  UNL1        0.0000
     37 C         137.7595  144.0444  164.5567 C.ar    1  UNL1        0.0002
     38 C         137.7210  143.2779  163.2678 C.ar    1  UNL1        0.0046
@<TRIPOS>UNITY_ATOM_ATTR
22 1
charge -1
@<TRIPOS>BOND
     1    19    20    1
     2    20    13    1
     3    13    14   ar
     4    14    15   ar
     5    15    16   ar
     6    16     8    1
     7     8     9   am
     8     9    10    2
     9     9    11    1
    10    11     7    1
    11     7     1    1
    12     1     2   ar
    13     2     3   ar
    14     3     4   ar
    15     4    24    1
    16    24    25    1
    17    25    26    1
    18    26    27    1
    19    27    28   ar
    20    28    29   ar
    21    29    33    1
    22    33    34   ar
    23    34    35   ar
    24    35    36   ar
    25    36    37   ar
    26    37    38   ar
    27    29    30   ar
    28    30    31   ar
    29    31    32    1
    30     4     5   ar
    31     5     6   ar
    32    11    12    1
    33    12    21    1
    34    21    22   ar
    35    21    23   ar
    36    16    17   ar
    37    17    18   ar
    38    18    13   ar
    39    12     8    1
    40     6     1   ar
    41    31    27   ar
    42    38    33   ar
@<TRIPOS>MOLECULE
*****
 38 42 0 0 0
SMALL
GASTEIGER

@<TRIPOS>ATOM
      1 C         141.5864  137.8681  161.8618 C.ar    1  UNL1       -0.0214
      2 C         140.4275  138.3321  161.0300 C.ar    1  UNL1       -0.0011
      3 C         140.6637  138.8782  159.6531 C.ar    1  UNL1        0.0366
      4 C         142.0587  138.9604  159.1079 C.ar    1  UNL1        0.1385
      5 C         143.2175  138.4964  159.9396 C.ar    1  UNL1        0.0366
      6 C         142.9814  137.9503  161.3166 C.ar    1  UNL1       -0.0011
      7 C         141.3502  137.3220  163.2387 C.3     1  UNL1        0.0375
      8 N         140.8550  139.5836  166.0233 N.am    1  UNL1       -0.2546
      9 C         139.9807  139.0321  164.9363 C.2     1  UNL1        0.2315
     10 O         138.5391  139.1889  164.5525 O.2     1  UNL1       -0.2745
     11 C         141.1451  138.2588  164.3921 C.3     1  UNL1        0.1052
     12 C         142.0194  138.8103  165.4790 C.3     1  UNL1        0.1249
     13 C         140.2396  142.3940  169.4835 C.ar    1  UNL1        0.1388
     14 C         140.5047  142.9400  168.1118 C.ar    1  UNL1        0.0382
     15 C         140.7098  142.0032  166.9584 C.ar    1  UNL1        0.0180
     16 C         140.6499  140.5204  167.1767 C.ar    1  UNL1        0.0543
     17 C         140.3848  139.9744  168.5484 C.ar    1  UNL1        0.0180
     18 C         140.1796  140.9112  169.7018 C.ar    1  UNL1        0.0382
     19 C         140.2106  144.8078  170.4439 C.3     1  UNL1        0.2525
     20 O         140.0345  143.3308  170.6369 O.3     1  UNL1       -0.4714
     21 C         143.4610  138.6535  165.8628 C.2     1  UNL1        0.0692
     22 O         143.8231  138.0490  167.1870 O.co2   1  UNL1       -0.5475
     23 O         144.5404  139.1011  164.9224 O.co2   1  UNL1       -0.5475
     24 O         142.2948  139.5065  157.7309 O.3     1  UNL1       -0.4750
     25 C         143.6950  139.7432  157.2479 C.3     1  UNL1        0.2118
     26 C         144.2865  141.1203  157.3082 C.3     1  UNL1        0.0960
     27 C         143.9371  142.0376  158.4425 C.ar    1  UNL1        0.0960
     28 N         144.3918  141.8940  159.8647 N.ar    1  UNL1       -0.2129
     29 C         143.8075  143.0271  160.6548 C.ar    1  UNL1        0.2289
     30 O         142.9916  143.8711  159.7210 O.2     1  UNL1       -0.4392
     31 C         143.0717  143.2596  158.3537 C.ar    1  UNL1        0.1387
     32 C         142.4038  143.7788  157.1150 C.3     1  UNL1        0.0738
     33 C         144.0044  143.2732  162.1214 C.ar    1  UNL1        0.0535
     34 C         143.4805  144.5313  162.7477 C.ar    1  UNL1        0.0046
     35 C         143.6774  144.7774  164.2142 C.ar    1  UNL1        0.0002
     36 C         144.3982  143.7652  165.0544 C.ar    1  UNL1        0.0000
     37 C         144.9221  142.5070  164.4280 C.ar    1  UNL1        0.0002
     38 C         144.7252  142.2610  162.9615 C.ar    1  UNL1        0.0046
@<TRIPOS>UNITY_ATOM_ATTR
22 1
charge -1
@<TRIPOS>BOND
     1    19    20    1
     2    20    13    1
     3    13    14   ar
     4    14    15   ar
     5    15    16   ar
     6    16     8    1
     7     8     9   am
     8     9    10    2
     9     9    11    1
    10    11     7    1
    11     7     1    1
    12     1     2   ar
    13     2     3   ar
    14     3     4   ar
    15     4    24    1
    16    24    25    1
    17    25    26    1
    18    26    27    1
    19    27    28   ar
    20    28    29   ar
    21    29    33    1
    22    33    34   ar
    23    34    35   ar
    24    35    36   ar
    25    36    37   ar
    26    37    38   ar
    27    29    30   ar
    28    30    31   ar
    29    31    32    1
    30     4     5   ar
    31     5     6   ar
    32    11    12    1
    33    12    21    1
    34    21    22   ar
    35    21    23   ar
    36    16    17   ar
    37    17    18   ar
    38    18    13   ar
    39    12     8    1
    40     6     1   ar
    41    31    27   ar
    42    38    33   ar
@<TRIPOS>MOLECULE
*****
 38 42 0 0 0
SMALL
GASTEIGER

@<TRIPOS>ATOM
      1 C         138.5870  138.7913  161.4185 C.ar    1  UNL1       -0.0214
      2 C         139.7395  138.3699  160.5558 C.ar    1  UNL1       -0.0011
      3 C         139.8447  138.8731  159.1466 C.ar    1  UNL1        0.0366
      4 C         138.7974  139.7975  158.6001 C.ar    1  UNL1        0.1385
      5 C         137.6450  140.2188  159.4628 C.ar    1  UNL1        0.0366
      6 C         137.5397  139.7157  160.8720 C.ar    1  UNL1       -0.0011
      7 C         138.4817  138.2881  162.8277 C.3     1  UNL1        0.0375
      8 N         140.1907  140.0288  165.5041 N.am    1  UNL1       -0.2546
      9 C         140.2714  140.0459  164.0064 C.2     1  UNL1        0.2315
     10 O         141.0934  140.7910  162.9969 O.2     1  UNL1       -0.2745
     11 C         139.1896  139.0091  163.9363 C.3     1  UNL1        0.1052
     12 C         139.1089  138.9920  165.4340 C.3     1  UNL1        0.1249
     13 C         142.3144  142.1918  168.8300 C.ar    1  UNL1        0.1388
     14 C         141.1230  142.8185  168.1684 C.ar    1  UNL1        0.0382
     15 C         140.4151  142.0975  167.0598 C.ar    1  UNL1        0.0180
     16 C         140.8986  140.7498  166.6128 C.ar    1  UNL1        0.0543
     17 C         142.0900  140.1230  167.2744 C.ar    1  UNL1        0.0180
     18 C         142.7978  140.8440  168.3830 C.ar    1  UNL1        0.0382
     19 C         144.5060  142.7652  170.1020 C.3     1  UNL1        0.2525
     20 O         143.0222  142.9128  169.9387 O.3     1  UNL1       -0.4714
     21 C         138.2869  138.2468  166.4435 C.2     1  UNL1        0.0692
     22 O         137.9288  138.8976  167.7467 O.co2   1  UNL1       -0.5475
     23 O         137.8230  136.8510  166.1498 O.co2   1  UNL1       -0.5475
     24 O         138.9027  140.3006  157.1909 O.3     1  UNL1       -0.4750
     25 C         138.5468  141.7228  156.8737 C.3     1  UNL1        0.2118
     26 C         139.5486  142.8155  157.1025 C.3     1  UNL1        0.0960
     27 C         139.8858  143.2434  158.5001 C.ar    1  UNL1        0.0960
     28 N         138.9754  143.1663  159.6897 N.ar    1  UNL1       -0.2129
     29 C         139.7196  143.6987  160.8782 C.ar    1  UNL1        0.2289
     30 O         141.0900  144.1048  160.4232 O.2     1  UNL1       -0.4392
     31 C         141.1928  143.8234  158.9535 C.ar    1  UNL1        0.1387
     32 C         142.3920  144.0773  158.0888 C.3     1  UNL1        0.0738
     33 C         139.1869  143.8062  162.2764 C.ar    1  UNL1        0.0535
     34 C         138.1337  142.8505  162.7531 C.ar    1  UNL1        0.0046
     35 C         137.6010  142.9580  164.1512 C.ar    1  UNL1        0.0002
     36 C         138.1215  144.0211  165.0725 C.ar    1  UNL1        0.0000
     37 C         139.1747  144.9768  164.5957 C.ar    1  UNL1        0.0002
     38 C         139.7074  144.8693  163.1976 C.ar    1  UNL1        0.0046
@<TRIPOS>UNITY_ATOM_ATTR
22 1
charge -1
@<TRIPOS>BOND
     1    19    20    1
     2    20    13    1
     3    13    14   ar
     4    14    15   ar
     5    15    16   ar
     6    16     8    1
     7     8     9   am
     8     9    10    2
     9     9    11    1
    10    11     7    1
    11     7     1    1
    12     1     2   ar
    13     2     3   ar
    14     3     4   ar
    15     4    24    1
    16    24    25    1
    17    25    26    1
    18    26    27    1
    19    27    28   ar
    20    28    29   ar
    21    29    33    1
    22    33    34   ar
    23    34    35   ar
    24    35    36   ar
    25    36    37   ar
    26    37    38   ar
    27    29    30   ar
    28    30    31   ar
    29    31    32    1
    30     4     5   ar
    31     5     6   ar
    32    11    12    1
    33    12    21    1
    34    21    22   ar
    35    21    23   ar
    36    16    17   ar
    37    17    18   ar
    38    18    13   ar
    39    12     8    1
    40     6     1   ar
    41    31    27   ar
    42    38    33   ar
@<TRIPOS>MOLECULE
*****
 38 42 0 0 0
SMALL
GASTEIGER

@<TRIPOS>ATOM
      1 C         138.4714  140.5577  164.9332 C.ar    1  UNL1       -0.0214
      2 C         137.9965  139.2774  165.5541 C.ar    1  UNL1       -0.0011
      3 C         138.3580  138.9528  166.9732 C.ar    1  UNL1        0.0366
      4 C         139.1944  139.9084  167.7715 C.ar    1  UNL1        0.1385
      5 C         139.6693  141.1886  167.1507 C.ar    1  UNL1        0.0366
      6 C         139.3078  141.5133  165.7315 C.ar    1  UNL1       -0.0011
      7 C         138.1099  140.8823  163.5141 C.3     1  UNL1        0.0375
      8 N         140.5386  140.4012  160.8715 N.am    1  UNL1       -0.2546
      9 C         139.3980  141.3471  161.1045 C.2     1  UNL1        0.2315
     10 O         138.7910  142.4856  160.3393 O.2     1  UNL1       -0.2745
     11 C         139.1159  140.6830  162.4195 C.3     1  UNL1        0.1052
     12 C         140.2565  139.7371  162.1866 C.3     1  UNL1        0.1249
     13 C         143.5567  139.8032  157.5876 C.ar    1  UNL1        0.1388
     14 C         143.8370  140.7740  158.6962 C.ar    1  UNL1        0.0382
     15 C         142.8310  140.9733  159.7908 C.ar    1  UNL1        0.0180
     16 C         141.5447  140.2019  159.7769 C.ar    1  UNL1        0.0543
     17 C         141.2644  139.2311  158.6683 C.ar    1  UNL1        0.0180
     18 C         142.2704  139.0318  157.5737 C.ar    1  UNL1        0.0382
     19 C         145.4943  140.7183  156.1185 C.3     1  UNL1        0.2525
     20 O         144.5627  139.6039  156.4930 O.3     1  UNL1       -0.4714
     21 C         140.8635  138.5987  162.9518 C.2     1  UNL1        0.0692
     22 O         140.8962  137.2244  162.3515 O.co2   1  UNL1       -0.5475
     23 O         141.4379  138.8345  164.3173 O.co2   1  UNL1       -0.5475
     24 O         139.5559  139.5837  169.1907 O.3     1  UNL1       -0.4750
     25 C         140.8952  139.9850  169.7341 C.3     1  UNL1        0.2118
     26 C         142.1363  139.7350  168.9298 C.3     1  UNL1        0.0960
     27 C         142.7337  140.8398  168.1096 C.ar    1  UNL1        0.0960
     28 N         142.9359  140.8242  166.6234 N.ar    1  UNL1       -0.2129
     29 C         143.5609  142.1288  166.2269 C.ar    1  UNL1        0.2289
     30 O         143.7450  142.9507  167.4680 O.2     1  UNL1       -0.4392
     31 C         143.2338  142.1541  168.6316 C.ar    1  UNL1        0.1387
     32 C         143.2242  142.5944  170.0656 C.3     1  UNL1        0.0738
     33 C         143.9360  142.5395  164.8338 C.ar    1  UNL1        0.0535
     34 C         143.5366  143.8896  164.3167 C.ar    1  UNL1        0.0046
     35 C         143.9117  144.3002  162.9236 C.ar    1  UNL1        0.0002
     36 C         144.6862  143.3607  162.0477 C.ar    1  UNL1        0.0000
     37 C         145.0857  142.0106  162.5647 C.ar    1  UNL1        0.0002
     38 C         144.7106  141.5999  163.9578 C.ar    1  UNL1        0.0046
@<TRIPOS>UNITY_ATOM_ATTR
22 1
charge -1
@<TRIPOS>BOND
     1    19    20    1
     2    20    13    1
     3    13    14   ar
     4    14    15   ar
     5    15    16   ar
     6    16     8    1
     7     8     9   am
     8     9    10    2
     9     9    11    1
    10    11     7    1
    11     7     1    1
    12     1     2   ar
    13     2     3   ar
    14     3     4   ar
    15     4    24    1
    16    24    25    1
    17    25    26    1
    18    26    27    1
    19    27    28   ar
    20    28    29   ar
    21    29    33    1
    22    33    34   ar
    23    34    35   ar
    24    35    36   ar
    25    36    37   ar
    26    37    38   ar
    27    29    30   ar
    28    30    31   ar
    29    31    32    1
    30     4     5   ar
    31     5     6   ar
    32    11    12    1
    33    12    21    1
    34    21    22   ar
    35    21    23   ar
    36    16    17   ar
    37    17    18   ar
    38    18    13   ar
    39    12     8    1
    40     6     1   ar
    41    31    27   ar
    42    38    33   ar
@<TRIPOS>MOLECULE
*****
 38 42 0 0 0
SMALL
GASTEIGER

@<TRIPOS>ATOM
      1 C         144.1699  140.8606  164.4012 C.ar    1  UNL1       -0.0214
      2 C         143.7564  139.5525  165.0079 C.ar    1  UNL1       -0.0011
      3 C         143.1258  139.5228  166.3686 C.ar    1  UNL1        0.0366
      4 C         142.9087  140.8012  167.1227 C.ar    1  UNL1        0.1385
      5 C         143.3221  142.1092  166.5160 C.ar    1  UNL1        0.0366
      6 C         143.9527  142.1389  165.1553 C.ar    1  UNL1       -0.0011
      7 C         144.8004  140.8902  163.0406 C.3     1  UNL1        0.0375
      8 N         143.2832  142.8273  160.3836 N.am    1  UNL1       -0.2546
      9 C         144.0290  143.1559  161.6430 C.2     1  UNL1        0.2315
     10 O         144.4553  144.4230  162.3233 O.2     1  UNL1       -0.2745
     11 C         144.1720  141.6926  161.9400 C.3     1  UNL1        0.1052
     12 C         143.4262  141.3639  160.6808 C.3     1  UNL1        0.1249
     13 C         141.3978  145.2344  157.0819 C.ar    1  UNL1        0.1388
     14 C         142.5041  144.2708  156.7699 C.ar    1  UNL1        0.0382
     15 C         143.1326  143.4684  157.8704 C.ar    1  UNL1        0.0180
     16 C         142.6547  143.6297  159.2831 C.ar    1  UNL1        0.0543
     17 C         141.5484  144.5933  159.5951 C.ar    1  UNL1        0.0180
     18 C         140.9199  145.3957  158.4946 C.ar    1  UNL1        0.0382
     19 C         139.2997  146.3351  156.0159 C.3     1  UNL1        0.2525
     20 O         140.7693  146.0368  155.9814 O.3     1  UNL1       -0.4714
     21 C         142.9999  140.0969  160.0004 C.2     1  UNL1        0.0692
     22 O         144.0199  139.0548  159.6485 O.co2   1  UNL1       -0.5475
     23 O         141.5537  139.8719  159.6720 O.co2   1  UNL1       -0.5475
     24 O         142.2781  140.7715  168.4834 O.3     1  UNL1       -0.4750
     25 C         141.1395  139.8356  168.7621 C.3     1  UNL1        0.2118
     26 C         139.7502  140.1936  168.3243 C.3     1  UNL1        0.0960
     27 C         139.5159  140.7460  166.9495 C.ar    1  UNL1        0.0960
     28 N         139.8987  142.1157  166.4727 N.ar    1  UNL1       -0.2129
     29 C         139.4771  142.2420  165.0387 C.ar    1  UNL1        0.2289
     30 O         138.8338  140.9503  164.6293 O.2     1  UNL1       -0.4392
     31 C         138.8578  140.0257  165.8102 C.ar    1  UNL1        0.1387
     32 C         138.3183  138.6265  165.8457 C.3     1  UNL1        0.0738
     33 C         139.6657  143.4482  164.1671 C.ar    1  UNL1        0.0535
     34 C         141.0014  144.1278  164.1062 C.ar    1  UNL1        0.0046
     35 C         141.1901  145.3340  163.2346 C.ar    1  UNL1        0.0002
     36 C         140.0430  145.8604  162.4241 C.ar    1  UNL1        0.0000
     37 C         138.7073  145.1807  162.4850 C.ar    1  UNL1        0.0002
     38 C         138.5186  143.9746  163.3566 C.ar    1  UNL1        0.0046
@<TRIPOS>UNITY_ATOM_ATTR
22 1
charge -1
@<TRIPOS>BOND
     1    19    20    1
     2    20    13    1
     3    13    14   ar
     4    14    15   ar
     5    15    16   ar
     6    16     8    1
     7     8     9   am
     8     9    10    2
     9     9    11    1
    10    11     7    1
    11     7     1    1
    12     1     2   ar
    13     2     3   ar
    14     3     4   ar
    15     4    24    1
    16    24    25    1
    17    25    26    1
    18    26    27    1
    19    27    28   ar
    20    28    29   ar
    21    29    33    1
    22    33    34   ar
    23    34    35   ar
    24    35    36   ar
    25    36    37   ar
    26    37    38   ar
    27    29    30   ar
    28    30    31   ar
    29    31    32    1
    30     4     5   ar
    31     5     6   ar
    32    11    12    1
    33    12    21    1
    34    21    22   ar
    35    21    23   ar
    36    16    17   ar
    37    17    18   ar
    38    18    13   ar
    39    12     8    1
    40     6     1   ar
    41    31    27   ar
    42    38    33   ar
