@<TRIPOS>MOLECULE
*****
 35 39 0 0 0
SMALL
GASTEIGER

@<TRIPOS>ATOM
      1 N         140.8932  142.7015  160.0489 N.3     1  UNL1       -0.2712
      2 C         140.8820  141.6323  158.9970 C.3     1  UNL1        0.0738
      3 C         140.3646  140.3713  159.6234 C.3     1  UNL1        0.0372
      4 C         140.0380  138.9312  159.3604 C.3     1  UNL1        0.0245
      5 C         139.5276  138.3310  160.6369 C.3     1  UNL1        0.0909
      6 N         139.5388  139.4003  161.6888 N.pl3   1  UNL1       -0.3077
      7 C         140.0562  140.6613  161.0624 C.3     1  UNL1        0.0901
      8 C         140.3829  142.1015  161.3254 C.3     1  UNL1        0.0921
      9 C         139.1084  139.2373  163.1164 C.ar    1  UNL1        0.0478
     10 C         138.5303  140.4026  163.8633 C.ar    1  UNL1        0.0145
     11 C         138.0999  140.2396  165.2909 C.ar    1  UNL1        0.0051
     12 C         138.2474  138.9112  165.9717 C.ar    1  UNL1        0.0715
     13 C         138.8254  137.7457  165.2248 C.ar    1  UNL1        0.0051
     14 C         139.2559  137.9088  163.7972 C.ar    1  UNL1        0.0145
     15 C         137.8169  138.7481  167.3993 C.3     1  UNL1        0.4186
     16 F         137.3864  138.5850  168.8269 F       1  UNL1       -0.1659
     17 F         136.8838  137.6465  166.9921 F       1  UNL1       -0.1659
     18 F         138.7500  139.8497  167.8065 F       1  UNL1       -0.1659
     19 C         141.3370  144.1216  159.8579 C.3     1  UNL1        0.0731
     20 C         140.3745  145.2468  160.0979 C.3     1  UNL1        0.0294
     21 C         140.1077  145.7203  161.4960 C.3     1  UNL1        0.0666
     22 S         141.1300  145.4984  162.5710 S.3     1  UNL1       -0.0756
     23 C         143.0332  143.2138  163.9156 C.3     1  UNL1        0.1340
     24 N         141.6649  143.6099  164.3856 N.ar    1  UNL1       -0.2884
     25 C         140.7901  144.6600  163.7675 C.ar    1  UNL1        0.1932
     26 N         139.5157  144.7246  164.5560 N.ar    1  UNL1       -0.1221
     27 N         139.6029  143.7144  165.6614 N.ar    1  UNL1       -0.1282
     28 C         140.9312  143.0254  165.5561 C.ar    1  UNL1        0.1678
     29 C         141.4369  141.9423  166.4622 C.2     1  UNL1        0.0488
     30 C         141.6478  140.5562  165.9291 C.2     1  UNL1       -0.0121
     31 C         142.1536  139.4730  166.8352 C.3     1  UNL1        0.1133
     32 C         142.4484  139.7761  168.2745 C.2     1  UNL1        0.2500
     33 O         142.9542  138.6929  169.1806 O.2     1  UNL1       -0.2726
     34 N         142.2375  141.1622  168.8076 N.am    1  UNL1       -0.1775
     35 C         141.7318  142.2453  167.9014 C.2     1  UNL1        0.0913
@<TRIPOS>BOND
     1    23    24    1
     2    24    25   ar
     3    25    22    1
     4    22    21    1
     5    21    20    1
     6    20    19    1
     7    19     1    1
     8     1     2    1
     9     2     3    1
    10     3     4    1
    11     4     5    1
    12     5     6    1
    13     6     9    1
    14     9    10   ar
    15    10    11   ar
    16    11    12   ar
    17    12    15    1
    18    15    16    1
    19    15    17    1
    20    15    18    1
    21    12    13   ar
    22    13    14   ar
    23     6     7    1
    24     7     8    1
    25    25    26   ar
    26    26    27   ar
    27    27    28   ar
    28    28    29    1
    29    29    30    2
    30    30    31    1
    31    31    32    1
    32    32    33    2
    33    32    34    1
    34    34    35    2
    35    28    24   ar
    36    35    29    1
    37     8     1    1
    38     7     3    1
    39    14     9   ar
@<TRIPOS>MOLECULE
*****
 35 39 0 0 0
SMALL
GASTEIGER

@<TRIPOS>ATOM
      1 N         142.1992  138.1638  162.6578 N.3     1  UNL1       -0.2712
      2 C         140.8114  137.5948  162.6750 C.3     1  UNL1        0.0738
      3 C         140.1231  138.0892  163.9126 C.3     1  UNL1        0.0372
      4 C         138.8400  138.0432  164.6882 C.3     1  UNL1        0.0245
      5 C         139.0093  138.8892  165.9152 C.3     1  UNL1        0.0909
      6 N         140.3972  139.4582  165.8980 N.pl3   1  UNL1       -0.3077
      7 C         141.0855  138.9638  164.6603 C.3     1  UNL1        0.0901
      8 C         142.3686  139.0098  163.8848 C.3     1  UNL1        0.0921
      9 C         140.9922  140.3628  166.9361 C.ar    1  UNL1        0.0478
     10 C         142.3556  140.9515  166.7253 C.ar    1  UNL1        0.0145
     11 C         142.9506  141.8561  167.7635 C.ar    1  UNL1        0.0051
     12 C         142.1822  142.1719  169.0124 C.ar    1  UNL1        0.0715
     13 C         140.8187  141.5831  169.2232 C.ar    1  UNL1        0.0051
     14 C         140.2237  140.6786  168.1850 C.ar    1  UNL1        0.0145
     15 C         142.7772  143.0764  170.0505 C.3     1  UNL1        0.4186
     16 F         143.3722  143.9810  171.0887 F       1  UNL1       -0.1659
     17 F         141.4687  143.7998  170.1702 F       1  UNL1       -0.1659
     18 F         144.0858  142.3530  169.9308 F       1  UNL1       -0.1659
     19 C         143.2357  137.9281  161.5994 C.3     1  UNL1        0.0731
     20 C         143.7721  139.0817  160.8049 C.3     1  UNL1        0.0294
     21 C         143.3157  139.2964  159.3922 C.3     1  UNL1        0.0666
     22 S         142.2976  140.3543  159.0856 S.3     1  UNL1       -0.0756
     23 C         142.2972  142.8049  161.2406 C.3     1  UNL1        0.1340
     24 N         141.2112  141.7852  161.0648 N.ar    1  UNL1       -0.2884
     25 C         141.2114  140.6588  160.0743 C.ar    1  UNL1        0.1932
     26 N         139.9347  139.8903  160.2460 N.ar    1  UNL1       -0.1221
     27 N         139.1455  140.5418  161.3426 N.ar    1  UNL1       -0.1282
     28 C         139.9344  141.7129  161.8488 C.ar    1  UNL1        0.1678
     29 C         139.5193  142.6476  162.9461 C.2     1  UNL1        0.0488
     30 C         140.2763  142.6672  164.2410 C.2     1  UNL1       -0.0121
     31 C         139.8613  143.6019  165.3383 C.3     1  UNL1        0.1133
     32 C         138.6892  144.5170  165.1407 C.2     1  UNL1        0.2500
     33 O         138.2742  145.4517  166.2380 O.2     1  UNL1       -0.2726
     34 N         137.9323  144.4974  163.8458 N.am    1  UNL1       -0.1775
     35 C         138.3474  143.5627  162.7485 C.2     1  UNL1        0.0913
@<TRIPOS>BOND
     1    23    24    1
     2    24    25   ar
     3    25    22    1
     4    22    21    1
     5    21    20    1
     6    20    19    1
     7    19     1    1
     8     1     2    1
     9     2     3    1
    10     3     4    1
    11     4     5    1
    12     5     6    1
    13     6     9    1
    14     9    10   ar
    15    10    11   ar
    16    11    12   ar
    17    12    15    1
    18    15    16    1
    19    15    17    1
    20    15    18    1
    21    12    13   ar
    22    13    14   ar
    23     6     7    1
    24     7     8    1
    25    25    26   ar
    26    26    27   ar
    27    27    28   ar
    28    28    29    1
    29    29    30    2
    30    30    31    1
    31    31    32    1
    32    32    33    2
    33    32    34    1
    34    34    35    2
    35    28    24   ar
    36    35    29    1
    37     8     1    1
    38     7     3    1
    39    14     9   ar
@<TRIPOS>MOLECULE
*****
 35 39 0 0 0
SMALL
GASTEIGER

@<TRIPOS>ATOM
      1 N         142.5820  142.1791  160.2489 N.3     1  UNL1       -0.2712
      2 C         143.6725  141.2156  159.8852 C.3     1  UNL1        0.0738
      3 C         143.5085  139.9887  160.7325 C.3     1  UNL1        0.0372
      4 C         144.0811  138.6349  161.0314 C.3     1  UNL1        0.0245
      5 C         143.2433  138.0035  162.1035 C.3     1  UNL1        0.0909
      6 N         142.1527  138.9672  162.4672 N.pl3   1  UNL1       -0.3077
      7 C         142.3167  140.1941  161.6199 C.3     1  UNL1        0.0901
      8 C         141.7441  141.5479  161.3210 C.3     1  UNL1        0.0921
      9 C         141.0856  138.7433  163.4974 C.ar    1  UNL1        0.0478
     10 C         141.1955  139.3935  164.8446 C.ar    1  UNL1        0.0145
     11 C         140.1284  139.1696  165.8748 C.ar    1  UNL1        0.0051
     12 C         138.9515  138.2954  165.5577 C.ar    1  UNL1        0.0715
     13 C         138.8416  137.6452  164.2104 C.ar    1  UNL1        0.0051
     14 C         139.9086  137.8691  163.1802 C.ar    1  UNL1        0.0145
     15 C         137.8844  138.0715  166.5878 C.3     1  UNL1        0.4186
     16 F         136.8173  137.8476  167.6180 F       1  UNL1       -0.1659
     17 F         137.9249  139.5275  166.9463 F       1  UNL1       -0.1659
     18 F         137.8439  136.6155  166.2293 F       1  UNL1       -0.1659
     19 C         142.3671  143.5359  159.6464 C.3     1  UNL1        0.0731
     20 C         140.9819  144.1036  159.5517 C.3     1  UNL1        0.0294
     21 C         140.7207  145.5187  159.9752 C.3     1  UNL1        0.0666
     22 S         139.9536  145.7953  161.2342 S.3     1  UNL1       -0.0756
     23 C         142.0774  145.4776  163.6914 C.3     1  UNL1        0.1340
     24 N         140.8734  144.6162  163.4497 N.ar    1  UNL1       -0.2884
     25 C         139.8972  144.7622  162.3203 C.ar    1  UNL1        0.1932
     26 N         138.8547  143.6938  162.4675 N.ar    1  UNL1       -0.1221
     27 N         139.1867  142.8874  163.6880 N.ar    1  UNL1       -0.1282
     28 C         140.4343  143.4575  164.2951 C.ar    1  UNL1        0.1678
     29 C         141.1220  142.9568  165.5306 C.2     1  UNL1        0.0488
     30 C         140.3570  142.8265  166.8142 C.2     1  UNL1       -0.0121
     31 C         141.0447  142.3258  168.0497 C.3     1  UNL1        0.1133
     32 C         142.4975  141.9554  168.0014 C.2     1  UNL1        0.2500
     33 O         143.1852  141.4547  169.2369 O.2     1  UNL1       -0.2726
     34 N         143.2625  142.0857  166.7178 N.am    1  UNL1       -0.1775
     35 C         142.5747  142.5864  165.4823 C.2     1  UNL1        0.0913
@<TRIPOS>BOND
     1    23    24    1
     2    24    25   ar
     3    25    22    1
     4    22    21    1
     5    21    20    1
     6    20    19    1
     7    19     1    1
     8     1     2    1
     9     2     3    1
    10     3     4    1
    11     4     5    1
    12     5     6    1
    13     6     9    1
    14     9    10   ar
    15    10    11   ar
    16    11    12   ar
    17    12    15    1
    18    15    16    1
    19    15    17    1
    20    15    18    1
    21    12    13   ar
    22    13    14   ar
    23     6     7    1
    24     7     8    1
    25    25    26   ar
    26    26    27   ar
    27    27    28   ar
    28    28    29    1
    29    29    30    2
    30    30    31    1
    31    31    32    1
    32    32    33    2
    33    32    34    1
    34    34    35    2
    35    28    24   ar
    36    35    29    1
    37     8     1    1
    38     7     3    1
    39    14     9   ar
@<TRIPOS>MOLECULE
*****
 35 39 0 0 0
SMALL
GASTEIGER

@<TRIPOS>ATOM
      1 N         140.7194  143.6274  159.8915 N.3     1  UNL1       -0.2712
      2 C         141.2310  144.8348  160.6199 C.3     1  UNL1        0.0738
      3 C         141.0843  144.5849  162.0916 C.3     1  UNL1        0.0372
      4 C         141.3098  145.1767  163.4514 C.3     1  UNL1        0.0245
      5 C         140.8469  144.1806  164.4730 C.3     1  UNL1        0.0909
      6 N         140.3353  142.9732  163.7446 N.pl3   1  UNL1       -0.3077
      7 C         140.4820  143.2231  162.2728 C.3     1  UNL1        0.0901
      8 C         140.2565  142.6313  160.9131 C.3     1  UNL1        0.0921
      9 C         139.7753  141.7336  164.3769 C.ar    1  UNL1        0.0478
     10 C         139.9995  141.4693  165.8363 C.ar    1  UNL1        0.0145
     11 C         139.4395  140.2297  166.4686 C.ar    1  UNL1        0.0051
     12 C         138.6553  139.2545  165.6416 C.ar    1  UNL1        0.0715
     13 C         138.4312  139.5188  164.1821 C.ar    1  UNL1        0.0051
     14 C         138.9911  140.7584  163.5498 C.ar    1  UNL1        0.0145
     15 C         138.0953  138.0149  166.2739 C.3     1  UNL1        0.4186
     16 F         137.5353  136.7753  166.9063 F       1  UNL1       -0.1659
     17 F         137.5259  138.8410  167.3890 F       1  UNL1       -0.1659
     18 F         138.6648  137.1888  165.1589 F       1  UNL1       -0.1659
     19 C         140.6780  143.4476  158.4029 C.3     1  UNL1        0.0731
     20 C         141.8077  142.7558  157.6993 C.3     1  UNL1        0.0294
     21 C         143.1982  143.3118  157.7860 C.3     1  UNL1        0.0666
     22 S         144.3479  142.4080  158.1196 S.3     1  UNL1       -0.0756
     23 C         144.0994  142.5979  161.3679 C.3     1  UNL1        0.1340
     24 N         144.0333  141.3419  160.5505 N.ar    1  UNL1       -0.2884
     25 C         144.1475  141.2546  159.0574 C.ar    1  UNL1        0.1932
     26 N         144.0261  139.8115  158.6668 N.ar    1  UNL1       -0.1221
     27 N         143.8369  139.0068  159.9185 N.ar    1  UNL1       -0.1282
     28 C         143.8413  139.9526  161.0827 C.ar    1  UNL1        0.1678
     29 C         143.6818  139.5755  162.5258 C.2     1  UNL1        0.0488
     30 C         142.3671  139.0518  163.0232 C.2     1  UNL1       -0.0121
     31 C         142.2076  138.6746  164.4662 C.3     1  UNL1        0.1133
     32 C         143.3629  138.8211  165.4118 C.2     1  UNL1        0.2500
     33 O         143.2033  138.4440  166.8548 O.2     1  UNL1       -0.2726
     34 N         144.6775  139.3448  164.9144 N.am    1  UNL1       -0.1775
     35 C         144.8370  139.7220  163.4713 C.2     1  UNL1        0.0913
@<TRIPOS>BOND
     1    23    24    1
     2    24    25   ar
     3    25    22    1
     4    22    21    1
     5    21    20    1
     6    20    19    1
     7    19     1    1
     8     1     2    1
     9     2     3    1
    10     3     4    1
    11     4     5    1
    12     5     6    1
    13     6     9    1
    14     9    10   ar
    15    10    11   ar
    16    11    12   ar
    17    12    15    1
    18    15    16    1
    19    15    17    1
    20    15    18    1
    21    12    13   ar
    22    13    14   ar
    23     6     7    1
    24     7     8    1
    25    25    26   ar
    26    26    27   ar
    27    27    28   ar
    28    28    29    1
    29    29    30    2
    30    30    31    1
    31    31    32    1
    32    32    33    2
    33    32    34    1
    34    34    35    2
    35    28    24   ar
    36    35    29    1
    37     8     1    1
    38     7     3    1
    39    14     9   ar
@<TRIPOS>MOLECULE
*****
 35 39 0 0 0
SMALL
GASTEIGER

@<TRIPOS>ATOM
      1 N         142.0591  143.2330  160.9643 N.3     1  UNL1       -0.2712
      2 C         141.8401  144.6102  161.5169 C.3     1  UNL1        0.0738
      3 C         141.0187  144.4834  162.7656 C.3     1  UNL1        0.0372
      4 C         140.3756  145.2561  163.8788 C.3     1  UNL1        0.0245
      5 C         139.6895  144.2782  164.7860 C.3     1  UNL1        0.0909
      6 N         139.9086  142.9009  164.2333 N.pl3   1  UNL1       -0.3077
      7 C         140.7300  143.0278  162.9847 C.3     1  UNL1        0.0901
      8 C         141.3731  142.2550  161.8714 C.3     1  UNL1        0.0921
      9 C         139.3962  141.6215  164.8254 C.ar    1  UNL1        0.0478
     10 C         138.5973  140.6721  163.9826 C.ar    1  UNL1        0.0145
     11 C         138.0849  139.3927  164.5747 C.ar    1  UNL1        0.0051
     12 C         138.3713  139.0627  166.0096 C.ar    1  UNL1        0.0715
     13 C         139.1703  140.0122  166.8525 C.ar    1  UNL1        0.0051
     14 C         139.6827  141.2915  166.2604 C.ar    1  UNL1        0.0145
     15 C         137.8589  137.7833  166.6017 C.3     1  UNL1        0.4186
     16 F         137.3465  136.5039  167.1938 F       1  UNL1       -0.1659
     17 F         137.1009  138.5645  167.6338 F       1  UNL1       -0.1659
     18 F         138.6169  137.0021  165.5696 F       1  UNL1       -0.1659
     19 C         142.8291  142.8934  159.7226 C.3     1  UNL1        0.0731
     20 C         143.9253  141.8709  159.7759 C.3     1  UNL1        0.0294
     21 C         143.5896  140.4092  159.7475 C.3     1  UNL1        0.0666
     22 S         143.9864  139.5261  160.8932 S.3     1  UNL1       -0.0756
     23 C         142.1268  139.0370  163.5299 C.3     1  UNL1        0.1340
     24 N         143.3570  139.8929  163.4650 N.ar    1  UNL1       -0.2884
     25 C         144.2117  140.1178  162.2530 C.ar    1  UNL1        0.1932
     26 N         145.3313  141.0381  162.6396 N.ar    1  UNL1       -0.1221
     27 N         145.1685  141.3821  164.0905 N.ar    1  UNL1       -0.1282
     28 C         143.9483  140.6744  164.6007 C.ar    1  UNL1        0.1678
     29 C         143.4134  140.7371  166.0007 C.2     1  UNL1        0.0488
     30 C         143.1197  139.4706  166.7488 C.2     1  UNL1       -0.0121
     31 C         142.5848  139.5333  168.1487 C.3     1  UNL1        0.1133
     32 C         142.3436  140.8626  168.8006 C.2     1  UNL1        0.2500
     33 O         141.8087  140.9253  170.2006 O.2     1  UNL1       -0.2726
     34 N         142.6373  142.1291  168.0525 N.am    1  UNL1       -0.1775
     35 C         143.1722  142.0663  166.6525 C.2     1  UNL1        0.0913
@<TRIPOS>BOND
     1    23    24    1
     2    24    25   ar
     3    25    22    1
     4    22    21    1
     5    21    20    1
     6    20    19    1
     7    19     1    1
     8     1     2    1
     9     2     3    1
    10     3     4    1
    11     4     5    1
    12     5     6    1
    13     6     9    1
    14     9    10   ar
    15    10    11   ar
    16    11    12   ar
    17    12    15    1
    18    15    16    1
    19    15    17    1
    20    15    18    1
    21    12    13   ar
    22    13    14   ar
    23     6     7    1
    24     7     8    1
    25    25    26   ar
    26    26    27   ar
    27    27    28   ar
    28    28    29    1
    29    29    30    2
    30    30    31    1
    31    31    32    1
    32    32    33    2
    33    32    34    1
    34    34    35    2
    35    28    24   ar
    36    35    29    1
    37     8     1    1
    38     7     3    1
    39    14     9   ar
@<TRIPOS>MOLECULE
*****
 35 39 0 0 0
SMALL
GASTEIGER

@<TRIPOS>ATOM
      1 N         142.3923  143.6422  161.6475 N.3     1  UNL1       -0.2712
      2 C         143.8140  143.2670  161.3506 C.3     1  UNL1        0.0738
      3 C         144.3288  142.4544  162.5015 C.3     1  UNL1        0.0372
      4 C         145.5257  141.7202  163.0293 C.3     1  UNL1        0.0245
      5 C         145.1620  141.1395  164.3637 C.3     1  UNL1        0.0909
      6 N         143.7402  141.5147  164.6605 N.pl3   1  UNL1       -0.3077
      7 C         143.2254  142.3274  163.5096 C.3     1  UNL1        0.0901
      8 C         142.0286  143.0615  162.9818 C.3     1  UNL1        0.0921
      9 C         142.9689  141.1427  165.8920 C.ar    1  UNL1        0.0478
     10 C         142.2784  142.2055  166.6942 C.ar    1  UNL1        0.0145
     11 C         141.5071  141.8335  167.9257 C.ar    1  UNL1        0.0051
     12 C         141.4262  140.3985  168.3550 C.ar    1  UNL1        0.0715
     13 C         142.1167  139.3356  167.5528 C.ar    1  UNL1        0.0051
     14 C         142.8880  139.7076  166.3213 C.ar    1  UNL1        0.0145
     15 C         140.6548  140.0265  169.5865 C.3     1  UNL1        0.4186
     16 F         139.8835  139.6544  170.8180 F       1  UNL1       -0.1659
     17 F         141.7599  139.0996  169.9987 F       1  UNL1       -0.1659
     18 F         139.5498  140.9533  169.1744 F       1  UNL1       -0.1659
     19 C         141.4924  144.4554  160.7649 C.3     1  UNL1        0.0731
     20 C         140.1859  143.8857  160.2975 C.3     1  UNL1        0.0294
     21 C         140.1214  143.1119  159.0140 C.3     1  UNL1        0.0666
     22 S         140.1390  141.6123  159.0407 S.3     1  UNL1       -0.0756
     23 C         137.9788  141.1844  161.4490 C.3     1  UNL1        0.1340
     24 N         139.3954  140.6914  161.4373 N.ar    1  UNL1       -0.2884
     25 C         140.3884  140.8881  160.3304 C.ar    1  UNL1        0.1932
     26 N         141.6745  140.2334  160.7394 N.ar    1  UNL1       -0.1221
     27 N         141.4764  139.6321  162.0993 N.ar    1  UNL1       -0.1282
     28 C         140.0679  139.9151  162.5307 C.ar    1  UNL1        0.1678
     29 C         139.4418  139.4955  163.8276 C.2     1  UNL1        0.0488
     30 C         139.1466  140.5190  164.8837 C.2     1  UNL1       -0.0121
     31 C         138.5205  140.0994  166.1806 C.3     1  UNL1        0.1133
     32 C         138.1896  138.6563  166.4213 C.2     1  UNL1        0.2500
     33 O         137.5635  138.2367  167.7182 O.2     1  UNL1       -0.2726
     34 N         138.4849  137.6328  165.3653 N.am    1  UNL1       -0.1775
     35 C         139.1110  138.0524  164.0684 C.2     1  UNL1        0.0913
@<TRIPOS>BOND
     1    23    24    1
     2    24    25   ar
     3    25    22    1
     4    22    21    1
     5    21    20    1
     6    20    19    1
     7    19     1    1
     8     1     2    1
     9     2     3    1
    10     3     4    1
    11     4     5    1
    12     5     6    1
    13     6     9    1
    14     9    10   ar
    15    10    11   ar
    16    11    12   ar
    17    12    15    1
    18    15    16    1
    19    15    17    1
    20    15    18    1
    21    12    13   ar
    22    13    14   ar
    23     6     7    1
    24     7     8    1
    25    25    26   ar
    26    26    27   ar
    27    27    28   ar
    28    28    29    1
    29    29    30    2
    30    30    31    1
    31    31    32    1
    32    32    33    2
    33    32    34    1
    34    34    35    2
    35    28    24   ar
    36    35    29    1
    37     8     1    1
    38     7     3    1
    39    14     9   ar
@<TRIPOS>MOLECULE
*****
 35 39 0 0 0
SMALL
GASTEIGER

@<TRIPOS>ATOM
      1 N         141.9503  141.5669  161.2306 N.3     1  UNL1       -0.2712
      2 C         142.5767  140.2067  161.1440 C.3     1  UNL1        0.0738
      3 C         142.5985  139.6179  162.5234 C.3     1  UNL1        0.0372
      4 C         142.9991  138.4133  163.3225 C.3     1  UNL1        0.0245
      5 C         142.6339  138.6650  164.7554 C.3     1  UNL1        0.0909
      6 N         142.0075  140.0253  164.8419 N.pl3   1  UNL1       -0.3077
      7 C         141.9857  140.6142  163.4625 C.3     1  UNL1        0.0901
      8 C         141.5851  141.8188  162.6635 C.3     1  UNL1        0.0921
      9 C         141.4933  140.6815  166.0890 C.ar    1  UNL1        0.0478
     10 C         141.4221  139.9050  167.3703 C.ar    1  UNL1        0.0145
     11 C         140.9079  140.5612  168.6173 C.ar    1  UNL1        0.0051
     12 C         140.4649  141.9938  168.5830 C.ar    1  UNL1        0.0715
     13 C         140.5362  142.7704  167.3016 C.ar    1  UNL1        0.0051
     14 C         141.0504  142.1142  166.0546 C.ar    1  UNL1        0.0145
     15 C         139.9507  142.6500  169.8300 C.3     1  UNL1        0.4186
     16 F         139.4366  143.3062  171.0770 F       1  UNL1       -0.1659
     17 F         140.5754  143.9460  169.4056 F       1  UNL1       -0.1659
     18 F         139.3261  141.3539  170.2544 F       1  UNL1       -0.1659
     19 C         141.7282  142.5098  160.0853 C.3     1  UNL1        0.0731
     20 C         141.3598  141.9742  158.7335 C.3     1  UNL1        0.0294
     21 C         139.9358  142.0337  158.2657 C.3     1  UNL1        0.0666
     22 S         139.0613  140.8194  158.3684 S.3     1  UNL1       -0.0756
     23 C         138.1056  141.5367  161.4051 C.3     1  UNL1        0.1340
     24 N         138.7282  140.2473  160.9581 N.ar    1  UNL1       -0.2884
     25 C         139.1674  139.9176  159.5623 C.ar    1  UNL1        0.1932
     26 N         139.7316  138.5277  159.5700 N.ar    1  UNL1       -0.1221
     27 N         139.6409  137.9984  160.9706 N.ar    1  UNL1       -0.1282
     28 C         139.0208  139.0611  161.8286 C.ar    1  UNL1        0.1678
     29 C         138.7422  138.9561  163.2987 C.2     1  UNL1        0.0488
     30 C         138.3156  140.1700  164.0698 C.2     1  UNL1       -0.0121
     31 C         138.0370  140.0650  165.5400 C.3     1  UNL1        0.1133
     32 C         138.1851  138.7461  166.2390 C.2     1  UNL1        0.2500
     33 O         137.9065  138.6411  167.7092 O.2     1  UNL1       -0.2726
     34 N         138.6117  137.5322  165.4679 N.am    1  UNL1       -0.1775
     35 C         138.8902  137.6373  163.9977 C.2     1  UNL1        0.0913
@<TRIPOS>BOND
     1    23    24    1
     2    24    25   ar
     3    25    22    1
     4    22    21    1
     5    21    20    1
     6    20    19    1
     7    19     1    1
     8     1     2    1
     9     2     3    1
    10     3     4    1
    11     4     5    1
    12     5     6    1
    13     6     9    1
    14     9    10   ar
    15    10    11   ar
    16    11    12   ar
    17    12    15    1
    18    15    16    1
    19    15    17    1
    20    15    18    1
    21    12    13   ar
    22    13    14   ar
    23     6     7    1
    24     7     8    1
    25    25    26   ar
    26    26    27   ar
    27    27    28   ar
    28    28    29    1
    29    29    30    2
    30    30    31    1
    31    31    32    1
    32    32    33    2
    33    32    34    1
    34    34    35    2
    35    28    24   ar
    36    35    29    1
    37     8     1    1
    38     7     3    1
    39    14     9   ar
@<TRIPOS>MOLECULE
*****
 35 39 0 0 0
SMALL
GASTEIGER

@<TRIPOS>ATOM
      1 N         143.9521  139.7109  162.3189 N.3     1  UNL1       -0.2712
      2 C         144.8650  140.8976  162.4097 C.3     1  UNL1        0.0738
      3 C         144.5117  141.6603  163.6520 C.3     1  UNL1        0.0372
      4 C         144.8575  142.8650  164.4760 C.3     1  UNL1        0.0245
      5 C         143.9399  142.8943  165.6623 C.3     1  UNL1        0.0909
      6 N         143.0269  141.7076  165.5714 N.pl3   1  UNL1       -0.3077
      7 C         143.3803  140.9449  164.3290 C.3     1  UNL1        0.0901
      8 C         143.0344  139.7402  163.5051 C.3     1  UNL1        0.0921
      9 C         141.9497  141.3469  166.5509 C.ar    1  UNL1        0.0478
     10 C         141.0719  140.1576  166.2962 C.ar    1  UNL1        0.0145
     11 C         139.9947  139.7969  167.2757 C.ar    1  UNL1        0.0051
     12 C         139.7952  140.6255  168.5100 C.ar    1  UNL1        0.0715
     13 C         140.6731  141.8149  168.7648 C.ar    1  UNL1        0.0051
     14 C         141.7503  142.1756  167.7853 C.ar    1  UNL1        0.0145
     15 C         138.7180  140.2648  169.4896 C.3     1  UNL1        0.4186
     16 F         137.6408  139.9041  170.4691 F       1  UNL1       -0.1659
     17 F         138.1045  139.3449  168.4761 F       1  UNL1       -0.1659
     18 F         139.3316  141.1848  170.5031 F       1  UNL1       -0.1659
     19 C         143.9560  138.6766  161.2325 C.3     1  UNL1        0.0731
     20 C         143.2498  138.9468  159.9371 C.3     1  UNL1        0.0294
     21 C         143.7829  139.9847  158.9944 C.3     1  UNL1        0.0666
     22 S         142.9490  141.1824  158.6481 S.3     1  UNL1       -0.0756
     23 C         140.3054  141.1511  160.5613 C.3     1  UNL1        0.1340
     24 N         141.3979  142.1786  160.5838 N.ar    1  UNL1       -0.2884
     25 C         142.6130  142.1931  159.7045 C.ar    1  UNL1        0.1932
     26 N         143.4332  143.3955  160.0668 N.ar    1  UNL1       -0.1221
     27 N         142.7250  144.1243  161.1702 N.ar    1  UNL1       -0.1282
     28 C         141.4671  143.3722  161.4897 C.ar    1  UNL1        0.1678
     29 C         140.4560  143.7478  162.5321 C.2     1  UNL1        0.0488
     30 C         140.8254  143.7048  163.9853 C.2     1  UNL1       -0.0121
     31 C         139.8142  144.0804  165.0276 C.3     1  UNL1        0.1133
     32 C         138.4336  144.4990  164.6167 C.2     1  UNL1        0.2500
     33 O         137.4225  144.8746  165.6591 O.2     1  UNL1       -0.2726
     34 N         138.0642  144.5420  163.1636 N.am    1  UNL1       -0.1775
     35 C         139.0754  144.1664  162.1213 C.2     1  UNL1        0.0913
@<TRIPOS>BOND
     1    23    24    1
     2    24    25   ar
     3    25    22    1
     4    22    21    1
     5    21    20    1
     6    20    19    1
     7    19     1    1
     8     1     2    1
     9     2     3    1
    10     3     4    1
    11     4     5    1
    12     5     6    1
    13     6     9    1
    14     9    10   ar
    15    10    11   ar
    16    11    12   ar
    17    12    15    1
    18    15    16    1
    19    15    17    1
    20    15    18    1
    21    12    13   ar
    22    13    14   ar
    23     6     7    1
    24     7     8    1
    25    25    26   ar
    26    26    27   ar
    27    27    28   ar
    28    28    29    1
    29    29    30    2
    30    30    31    1
    31    31    32    1
    32    32    33    2
    33    32    34    1
    34    34    35    2
    35    28    24   ar
    36    35    29    1
    37     8     1    1
    38     7     3    1
    39    14     9   ar
@<TRIPOS>MOLECULE
*****
 35 39 0 0 0
SMALL
GASTEIGER

@<TRIPOS>ATOM
      1 N         142.2524  144.0478  159.8350 N.3     1  UNL1       -0.2712
      2 C         141.0829  144.9866  159.8017 C.3     1  UNL1        0.0738
      3 C         140.5206  145.0760  161.1894 C.3     1  UNL1        0.0372
      4 C         139.4503  145.7114  162.0265 C.3     1  UNL1        0.0245
      5 C         139.6107  145.2206  163.4349 C.3     1  UNL1        0.0909
      6 N         140.7802  144.2818  163.4682 N.pl3   1  UNL1       -0.3077
      7 C         141.3425  144.1924  162.0804 C.3     1  UNL1        0.0901
      8 C         142.4128  143.5570  161.2434 C.3     1  UNL1        0.0921
      9 C         141.2966  143.5592  164.6770 C.ar    1  UNL1        0.0478
     10 C         142.7413  143.1633  164.7537 C.ar    1  UNL1        0.0145
     11 C         143.2577  142.4407  165.9626 C.ar    1  UNL1        0.0051
     12 C         142.3294  142.1142  167.0946 C.ar    1  UNL1        0.0715
     13 C         140.8846  142.5101  167.0179 C.ar    1  UNL1        0.0051
     14 C         140.3682  143.2327  165.8091 C.ar    1  UNL1        0.0145
     15 C         142.8459  141.3916  168.3034 C.3     1  UNL1        0.4186
     16 F         143.3623  140.6691  169.5122 F       1  UNL1       -0.1659
     17 F         142.7822  142.6659  169.0923 F       1  UNL1       -0.1659
     18 F         142.9095  140.1174  167.5146 F       1  UNL1       -0.1659
     19 C         143.1107  143.6668  158.6654 C.3     1  UNL1        0.0731
     20 C         143.0633  142.2686  158.1243 C.3     1  UNL1        0.0294
     21 C         143.9883  141.2213  158.6700 C.3     1  UNL1        0.0666
     22 S         143.5128  139.8070  158.8234 S.3     1  UNL1       -0.0756
     23 C         140.7168  140.1841  160.4635 C.3     1  UNL1        0.1340
     24 N         141.9252  139.4347  160.9414 N.ar    1  UNL1       -0.2884
     25 C         143.2103  139.2614  160.1875 C.ar    1  UNL1        0.1932
     26 N         144.1399  138.4466  161.0372 N.ar    1  UNL1       -0.1221
     27 N         143.4293  138.1164  162.3163 N.ar    1  UNL1       -0.1282
     28 C         142.0605  138.7270  162.2571 C.ar    1  UNL1        0.1678
     29 C         141.0112  138.6445  163.3259 C.2     1  UNL1        0.0488
     30 C         141.1523  139.4559  164.5796 C.2     1  UNL1       -0.0121
     31 C         140.1030  139.3733  165.6484 C.3     1  UNL1        0.1133
     32 C         138.9127  138.4794  165.4634 C.2     1  UNL1        0.2500
     33 O         137.8635  138.3969  166.5322 O.2     1  UNL1       -0.2726
     34 N         138.7717  137.6680  164.2097 N.am    1  UNL1       -0.1775
     35 C         139.8210  137.7506  163.1409 C.2     1  UNL1        0.0913
@<TRIPOS>BOND
     1    23    24    1
     2    24    25   ar
     3    25    22    1
     4    22    21    1
     5    21    20    1
     6    20    19    1
     7    19     1    1
     8     1     2    1
     9     2     3    1
    10     3     4    1
    11     4     5    1
    12     5     6    1
    13     6     9    1
    14     9    10   ar
    15    10    11   ar
    16    11    12   ar
    17    12    15    1
    18    15    16    1
    19    15    17    1
    20    15    18    1
    21    12    13   ar
    22    13    14   ar
    23     6     7    1
    24     7     8    1
    25    25    26   ar
    26    26    27   ar
    27    27    28   ar
    28    28    29    1
    29    29    30    2
    30    30    31    1
    31    31    32    1
    32    32    33    2
    33    32    34    1
    34    34    35    2
    35    28    24   ar
    36    35    29    1
    37     8     1    1
    38     7     3    1
    39    14     9   ar
