@<TRIPOS>MOLECULE
*****
 38 42 0 0 0
SMALL
GASTEIGER

@<TRIPOS>ATOM
      1 N         142.0869  141.2973  165.1034 N.ar    1  UNL1       -0.2986
      2 C         140.9737  141.9883  165.8337 C.ar    1  UNL1        0.1245
      3 C         140.5147  143.1430  164.9935 C.ar    1  UNL1        0.1157
      4 C         141.3442  143.1657  163.7440 C.ar    1  UNL1        0.0967
      5 C         142.3159  142.0250  163.8119 C.ar    1  UNL1        0.1354
      6 C         143.2837  141.7963  162.6890 C.ar    1  UNL1        0.2819
      7 O         144.2554  140.6556  162.7569 O.2     1  UNL1       -0.2652
      8 N         143.2798  142.7083  161.4981 N.ar    1  UNL1       -0.2417
      9 C         142.3081  143.8490  161.4301 C.ar    1  UNL1        0.3342
     10 O         142.3043  144.7610  160.2392 O.2     1  UNL1       -0.2462
     11 N         141.3404  144.0777  162.5531 N.ar    1  UNL1       -0.2770
     12 C         140.3687  145.2184  162.4851 C.3     1  UNL1        0.1351
     13 N         140.4171  141.5938  167.1696 N.pl3   1  UNL1       -0.2926
     14 C         139.5610  140.3684  167.2932 C.3     1  UNL1        0.0922
     15 C         139.0045  139.9739  168.6291 C.3     1  UNL1        0.0229
     16 C         139.3042  140.8048  169.8414 C.3     1  UNL1        0.0190
     17 C         140.1603  142.0303  169.7179 C.3     1  UNL1        0.0709
     18 N         140.4600  142.8612  170.9302 N.3     1  UNL1       -0.3208
     19 C         140.7168  142.4247  168.3820 C.3     1  UNL1        0.1075
     20 H         140.0050  142.4499  171.7452 H       1  UNL1        0.1189
     21 H         140.1105  143.8088  170.7877 H       1  UNL1        0.1189
     22 C         139.4186  144.1060  165.3417 C.1     1  UNL1        0.1047
     23 N         138.3225  145.0691  165.6898 N.1     1  UNL1       -0.1907
     24 C         142.8390  140.0905  165.5808 C.3     1  UNL1        0.1842
     25 C         142.6516  138.8912  169.9141 C.3     1  UNL1        0.0900
     26 C         142.7141  139.2910  168.4697 C.1     1  UNL1       -0.0881
     27 C         142.7765  139.6908  167.0252 C.1     1  UNL1       -0.0656
     28 C         144.2476  142.4796  160.3751 C.3     1  UNL1        0.1593
     29 C         143.9204  141.4951  159.2918 C.ar    1  UNL1        0.0821
     30 N         142.7819  140.5349  159.4698 N.ar    1  UNL1       -0.2462
     31 C         142.4546  139.5504  158.3865 C.ar    1  UNL1        0.0985
     32 C         143.2659  139.5260  157.1251 C.ar    1  UNL1        0.0207
     33 C         144.4045  140.4863  156.9470 C.ar    1  UNL1        0.0027
     34 C         145.2158  140.4619  155.6856 C.ar    1  UNL1        0.0001
     35 C         146.3543  141.4221  155.5075 C.ar    1  UNL1        0.0000
     36 C         146.6816  142.4066  156.5909 C.ar    1  UNL1        0.0000
     37 C         145.8703  142.4310  157.8523 C.ar    1  UNL1        0.0012
     38 C         144.7317  141.4708  158.0303 C.ar    1  UNL1        0.0155
@<TRIPOS>BOND
     1    25    26    1
     2    26    27    3
     3    27    24    1
     4    24     1    1
     5     1     2   ar
     6     2    13    1
     7    13    14    1
     8    14    15    1
     9    15    16    1
    10    16    17    1
    11    17    18    1
    12    17    19    1
    13     2     3   ar
    14     3    22    1
    15    22    23    3
    16     3     4   ar
    17     4     5   ar
    18     5     6   ar
    19     6     7    2
    20     6     8   ar
    21     8    28    1
    22    28    29    1
    23    29    30   ar
    24    30    31   ar
    25    31    32   ar
    26    32    33   ar
    27    33    34   ar
    28    34    35   ar
    29    35    36   ar
    30    36    37   ar
    31    37    38   ar
    32     8     9   ar
    33     9    10    2
    34     9    11   ar
    35    11    12    1
    36     5     1   ar
    37    38    29   ar
    38    19    13    1
    39    11     4   ar
    40    38    33   ar
    41    18    20    1
    42    18    21    1
@<TRIPOS>MOLECULE
*****
 38 42 0 0 0
SMALL
GASTEIGER

@<TRIPOS>ATOM
      1 N         142.0962  141.1026  165.3517 N.ar    1  UNL1       -0.2986
      2 C         140.9612  141.8133  166.0275 C.ar    1  UNL1        0.1245
      3 C         140.5652  142.9768  165.1677 C.ar    1  UNL1        0.1157
      4 C         141.4555  142.9853  163.9605 C.ar    1  UNL1        0.0967
      5 C         142.4017  141.8270  164.0743 C.ar    1  UNL1        0.1354
      6 C         143.4192  141.5814  162.9998 C.ar    1  UNL1        0.2819
      7 O         144.3654  140.4231  163.1136 O.2     1  UNL1       -0.2652
      8 N         143.4906  142.4942  161.8117 N.ar    1  UNL1       -0.2417
      9 C         142.5443  143.6525  161.6979 C.ar    1  UNL1        0.3342
     10 O         142.6156  144.5653  160.5097 O.2     1  UNL1       -0.2462
     11 N         141.5268  143.8980  162.7723 N.ar    1  UNL1       -0.2770
     12 C         140.5806  145.0563  162.6585 C.3     1  UNL1        0.1351
     13 N         140.3325  141.4280  167.3339 N.pl3   1  UNL1       -0.2926
     14 C         139.4573  140.2126  167.4154 C.3     1  UNL1        0.0922
     15 C         138.8287  139.8274  168.7217 C.3     1  UNL1        0.0229
     16 C         139.0754  140.6576  169.9464 C.3     1  UNL1        0.0190
     17 C         139.9506  141.8730  169.8649 C.3     1  UNL1        0.0709
     18 N         140.1972  142.7032  171.0896 N.3     1  UNL1       -0.3208
     19 C         140.5792  142.2582  168.5586 C.3     1  UNL1        0.1075
     20 H         139.6964  142.2989  171.8809 H       1  UNL1        0.1189
     21 H         139.8662  143.6544  170.9279 H       1  UNL1        0.1189
     22 C         139.4710  143.9594  165.4631 C.1     1  UNL1        0.1047
     23 N         138.3767  144.9420  165.7584 N.1     1  UNL1       -0.1907
     24 C         142.8019  139.8820  165.8636 C.3     1  UNL1        0.1842
     25 C         142.5958  138.8306  170.2342 C.3     1  UNL1        0.0900
     26 C         142.6646  139.1811  168.7774 C.1     1  UNL1       -0.0881
     27 C         142.7332  139.5315  167.3205 C.1     1  UNL1       -0.0656
     28 C         144.5081  142.2486  160.7373 C.3     1  UNL1        0.1593
     29 C         144.0625  141.9104  159.3455 C.ar    1  UNL1        0.0821
     30 N         144.0940  142.9581  158.2725 N.ar    1  UNL1       -0.2462
     31 C         143.6485  142.6199  156.8807 C.ar    1  UNL1        0.0985
     32 C         143.1714  141.2341  156.5619 C.ar    1  UNL1        0.0207
     33 C         143.1399  140.1863  157.6349 C.ar    1  UNL1        0.0027
     34 C         142.6628  138.8004  157.3161 C.ar    1  UNL1        0.0001
     35 C         142.6313  137.7527  158.3890 C.ar    1  UNL1        0.0000
     36 C         143.0768  138.0909  159.7808 C.ar    1  UNL1        0.0000
     37 C         143.5539  139.4768  160.0997 C.ar    1  UNL1        0.0012
     38 C         143.5854  140.5245  159.0267 C.ar    1  UNL1        0.0155
@<TRIPOS>BOND
     1    25    26    1
     2    26    27    3
     3    27    24    1
     4    24     1    1
     5     1     2   ar
     6     2    13    1
     7    13    14    1
     8    14    15    1
     9    15    16    1
    10    16    17    1
    11    17    18    1
    12    17    19    1
    13     2     3   ar
    14     3    22    1
    15    22    23    3
    16     3     4   ar
    17     4     5   ar
    18     5     6   ar
    19     6     7    2
    20     6     8   ar
    21     8    28    1
    22    28    29    1
    23    29    30   ar
    24    30    31   ar
    25    31    32   ar
    26    32    33   ar
    27    33    34   ar
    28    34    35   ar
    29    35    36   ar
    30    36    37   ar
    31    37    38   ar
    32     8     9   ar
    33     9    10    2
    34     9    11   ar
    35    11    12    1
    36     5     1   ar
    37    38    29   ar
    38    19    13    1
    39    11     4   ar
    40    38    33   ar
    41    18    20    1
    42    18    21    1
@<TRIPOS>MOLECULE
*****
 38 42 0 0 0
SMALL
GASTEIGER

@<TRIPOS>ATOM
      1 N         139.8510  142.9462  161.3518 N.ar    1  UNL1       -0.2986
      2 C         139.8578  142.5912  159.8944 C.ar    1  UNL1        0.1245
      3 C         139.6245  141.1142  159.7760 C.ar    1  UNL1        0.1157
      4 C         139.4735  140.5563  161.1602 C.ar    1  UNL1        0.0967
      5 C         139.6134  141.6885  162.1340 C.ar    1  UNL1        0.1354
      6 C         139.5065  141.4281  163.6074 C.ar    1  UNL1        0.2819
      7 O         139.6465  142.5603  164.5812 O.2     1  UNL1       -0.2652
      8 N         139.2597  140.0354  164.1069 N.ar    1  UNL1       -0.2417
      9 C         139.1197  138.9032  163.1329 C.ar    1  UNL1        0.3342
     10 O         138.8728  137.5105  163.6324 O.2     1  UNL1       -0.2462
     11 N         139.2266  139.1636  161.6596 N.ar    1  UNL1       -0.2770
     12 C         139.0866  138.0314  160.6858 C.3     1  UNL1        0.1351
     13 N         140.0620  143.5457  158.7554 N.pl3   1  UNL1       -0.2926
     14 C         139.0927  143.5660  157.6108 C.3     1  UNL1        0.0922
     15 C         139.2970  144.5204  156.4719 C.3     1  UNL1        0.0229
     16 C         140.4706  145.4546  156.4775 C.3     1  UNL1        0.0190
     17 C         141.4399  145.4343  157.6220 C.3     1  UNL1        0.0709
     18 N         142.6135  146.3685  157.6277 N.3     1  UNL1       -0.3208
     19 C         141.2356  144.4799  158.7610 C.3     1  UNL1        0.1075
     20 H         142.5963  146.9411  156.7837 H       1  UNL1        0.1189
     21 H         143.4781  145.8281  157.6544 H       1  UNL1        0.1189
     22 C         139.5544  140.3323  158.4978 C.1     1  UNL1        0.1047
     23 N         139.4845  139.5503  157.2196 N.1     1  UNL1       -0.1907
     24 C         140.0472  144.3179  161.9260 C.3     1  UNL1        0.1842
     25 C         143.8326  145.3059  164.1497 C.3     1  UNL1        0.0900
     26 C         142.5708  144.9766  163.4085 C.1     1  UNL1       -0.0881
     27 C         141.3090  144.6472  162.6672 C.1     1  UNL1       -0.0656
     28 C         139.1528  139.7749  165.5802 C.3     1  UNL1        0.1593
     29 C         140.3949  139.6097  166.4047 C.ar    1  UNL1        0.0821
     30 N         141.6897  139.2391  165.7442 N.ar    1  UNL1       -0.2462
     31 C         142.9318  139.0739  166.5687 C.ar    1  UNL1        0.0985
     32 C         142.8792  139.2791  168.0536 C.ar    1  UNL1        0.0207
     33 C         141.5844  139.6497  168.7142 C.ar    1  UNL1        0.0027
     34 C         141.5317  139.8550  170.1991 C.ar    1  UNL1        0.0001
     35 C         140.2369  140.2255  170.8595 C.ar    1  UNL1        0.0000
     36 C         138.9948  140.3908  170.0350 C.ar    1  UNL1        0.0000
     37 C         139.0475  140.1855  168.5501 C.ar    1  UNL1        0.0012
     38 C         140.3422  139.8150  167.8897 C.ar    1  UNL1        0.0155
@<TRIPOS>BOND
     1    25    26    1
     2    26    27    3
     3    27    24    1
     4    24     1    1
     5     1     2   ar
     6     2    13    1
     7    13    14    1
     8    14    15    1
     9    15    16    1
    10    16    17    1
    11    17    18    1
    12    17    19    1
    13     2     3   ar
    14     3    22    1
    15    22    23    3
    16     3     4   ar
    17     4     5   ar
    18     5     6   ar
    19     6     7    2
    20     6     8   ar
    21     8    28    1
    22    28    29    1
    23    29    30   ar
    24    30    31   ar
    25    31    32   ar
    26    32    33   ar
    27    33    34   ar
    28    34    35   ar
    29    35    36   ar
    30    36    37   ar
    31    37    38   ar
    32     8     9   ar
    33     9    10    2
    34     9    11   ar
    35    11    12    1
    36     5     1   ar
    37    38    29   ar
    38    19    13    1
    39    11     4   ar
    40    38    33   ar
    41    18    20    1
    42    18    21    1
@<TRIPOS>MOLECULE
*****
 38 42 0 0 0
SMALL
GASTEIGER

@<TRIPOS>ATOM
      1 N         142.1877  140.9318  165.7906 N.ar    1  UNL1       -0.2986
      2 C         141.0005  140.6959  166.6766 C.ar    1  UNL1        0.1245
      3 C         140.0905  139.7255  165.9836 C.ar    1  UNL1        0.1157
      4 C         140.7153  139.3617  164.6694 C.ar    1  UNL1        0.0967
      5 C         142.0114  140.1072  164.5501 C.ar    1  UNL1        0.1354
      6 C         142.8637  139.9389  163.3272 C.ar    1  UNL1        0.2819
      7 O         144.1597  140.6845  163.2079 O.2     1  UNL1       -0.2652
      8 N         142.4198  139.0251  162.2236 N.ar    1  UNL1       -0.2417
      9 C         141.1236  138.2795  162.3430 C.ar    1  UNL1        0.3342
     10 O         140.6798  137.3656  161.2394 O.2     1  UNL1       -0.2462
     11 N         140.2714  138.4478  163.5658 N.ar    1  UNL1       -0.2770
     12 C         138.9753  137.7023  163.6851 C.3     1  UNL1        0.1351
     13 N         140.7648  141.3208  168.0198 N.pl3   1  UNL1       -0.2926
     14 C         140.5187  142.7965  168.1277 C.3     1  UNL1        0.0922
     15 C         140.2829  143.4212  169.4708 C.3     1  UNL1        0.0229
     16 C         140.2933  142.5703  170.7060 C.3     1  UNL1        0.0190
     17 C         140.5394  141.0946  170.5981 C.3     1  UNL1        0.0709
     18 N         140.5497  140.2436  171.8334 N.3     1  UNL1       -0.3208
     19 C         140.7751  140.4698  169.2550 C.3     1  UNL1        0.1075
     20 H         140.3737  140.8282  172.6504 H       1  UNL1        0.1189
     21 H         141.4596  139.7924  171.9278 H       1  UNL1        0.1189
     22 C         138.7850  139.2095  166.5121 C.1     1  UNL1        0.1047
     23 N         137.4795  138.6934  167.0407 N.1     1  UNL1       -0.1907
     24 C         143.3475  141.8340  166.0921 C.3     1  UNL1        0.1842
     25 C         143.9721  145.5794  163.6772 C.3     1  UNL1        0.0900
     26 C         143.7639  144.3310  164.4822 C.1     1  UNL1       -0.0881
     27 C         143.5557  143.0824  165.2872 C.1     1  UNL1       -0.0656
     28 C         143.2720  138.8567  161.0008 C.3     1  UNL1        0.1593
     29 C         143.0339  139.7183  159.7963 C.ar    1  UNL1        0.0821
     30 N         143.0869  141.2122  159.9203 N.ar    1  UNL1       -0.2462
     31 C         142.8488  142.0738  158.7158 C.ar    1  UNL1        0.0985
     32 C         142.5576  141.4415  157.3871 C.ar    1  UNL1        0.0207
     33 C         142.5045  139.9475  157.2630 C.ar    1  UNL1        0.0027
     34 C         142.2132  139.3152  155.9344 C.ar    1  UNL1        0.0001
     35 C         142.1601  137.8213  155.8103 C.ar    1  UNL1        0.0000
     36 C         142.3983  136.9598  157.0148 C.ar    1  UNL1        0.0000
     37 C         142.6895  137.5921  158.3435 C.ar    1  UNL1        0.0012
     38 C         142.7426  139.0859  158.4676 C.ar    1  UNL1        0.0155
@<TRIPOS>BOND
     1    25    26    1
     2    26    27    3
     3    27    24    1
     4    24     1    1
     5     1     2   ar
     6     2    13    1
     7    13    14    1
     8    14    15    1
     9    15    16    1
    10    16    17    1
    11    17    18    1
    12    17    19    1
    13     2     3   ar
    14     3    22    1
    15    22    23    3
    16     3     4   ar
    17     4     5   ar
    18     5     6   ar
    19     6     7    2
    20     6     8   ar
    21     8    28    1
    22    28    29    1
    23    29    30   ar
    24    30    31   ar
    25    31    32   ar
    26    32    33   ar
    27    33    34   ar
    28    34    35   ar
    29    35    36   ar
    30    36    37   ar
    31    37    38   ar
    32     8     9   ar
    33     9    10    2
    34     9    11   ar
    35    11    12    1
    36     5     1   ar
    37    38    29   ar
    38    19    13    1
    39    11     4   ar
    40    38    33   ar
    41    18    20    1
    42    18    21    1
@<TRIPOS>MOLECULE
*****
 38 42 0 0 0
SMALL
GASTEIGER

@<TRIPOS>ATOM
      1 N         140.7156  138.8972  162.5082 N.ar    1  UNL1       -0.2986
      2 C         139.7792  139.8054  163.2487 C.ar    1  UNL1        0.1245
      3 C         139.2427  140.8121  162.2747 C.ar    1  UNL1        0.1157
      4 C         139.8475  140.5261  160.9322 C.ar    1  UNL1        0.0967
      5 C         140.7578  139.3427  161.0765 C.ar    1  UNL1        0.1354
      6 C         141.5076  138.8236  159.8856 C.ar    1  UNL1        0.2819
      7 O         142.4179  137.6401  160.0299 O.2     1  UNL1       -0.2652
      8 N         141.3471  139.4879  158.5503 N.ar    1  UNL1       -0.2417
      9 C         140.4368  140.6714  158.4060 C.ar    1  UNL1        0.3342
     10 O         140.2763  141.3357  157.0708 O.2     1  UNL1       -0.2462
     11 N         139.6870  141.1905  159.5969 N.ar    1  UNL1       -0.2770
     12 C         138.7768  142.3739  159.4526 C.3     1  UNL1        0.1351
     13 N         139.4389  139.7215  164.7073 N.pl3   1  UNL1       -0.2926
     14 C         140.0836  140.6608  165.6830 C.3     1  UNL1        0.0922
     15 C         139.7434  140.5769  167.1415 C.3     1  UNL1        0.0229
     16 C         138.7585  139.5537  167.6242 C.3     1  UNL1        0.0190
     17 C         138.1139  138.6144  166.6485 C.3     1  UNL1        0.0709
     18 N         137.1290  137.5912  167.1313 N.3     1  UNL1       -0.3208
     19 C         138.4541  138.6983  165.1900 C.3     1  UNL1        0.1075
     20 H         137.0184  137.6759  168.1417 H       1  UNL1        0.1189
     21 H         137.4700  136.6572  166.9036 H       1  UNL1        0.1189
     22 C         138.2718  141.9117  162.5881 C.1     1  UNL1        0.1047
     23 N         137.3010  143.0114  162.9015 N.1     1  UNL1       -0.1907
     24 C         141.4762  137.7458  163.0961 C.3     1  UNL1        0.1842
     25 C         143.6645  138.2512  166.9956 C.3     1  UNL1        0.0900
     26 C         142.9351  138.0827  165.6958 C.1     1  UNL1       -0.0881
     27 C         142.2056  137.9143  164.3959 C.1     1  UNL1       -0.0656
     28 C         142.0969  138.9688  157.3594 C.3     1  UNL1        0.1593
     29 C         141.4117  138.0658  156.3770 C.ar    1  UNL1        0.0821
     30 N         140.3309  138.6066  155.4885 N.ar    1  UNL1       -0.2462
     31 C         139.6457  137.7036  154.5061 C.ar    1  UNL1        0.0985
     32 C         140.0414  136.2598  154.4121 C.ar    1  UNL1        0.0207
     33 C         141.1222  135.7189  155.3006 C.ar    1  UNL1        0.0027
     34 C         141.5178  134.2751  155.2067 C.ar    1  UNL1        0.0001
     35 C         142.5986  133.7343  156.0951 C.ar    1  UNL1        0.0000
     36 C         143.2838  134.6373  157.0775 C.ar    1  UNL1        0.0000
     37 C         142.8882  136.0811  157.1715 C.ar    1  UNL1        0.0012
     38 C         141.8074  136.6219  156.2830 C.ar    1  UNL1        0.0155
@<TRIPOS>BOND
     1    25    26    1
     2    26    27    3
     3    27    24    1
     4    24     1    1
     5     1     2   ar
     6     2    13    1
     7    13    14    1
     8    14    15    1
     9    15    16    1
    10    16    17    1
    11    17    18    1
    12    17    19    1
    13     2     3   ar
    14     3    22    1
    15    22    23    3
    16     3     4   ar
    17     4     5   ar
    18     5     6   ar
    19     6     7    2
    20     6     8   ar
    21     8    28    1
    22    28    29    1
    23    29    30   ar
    24    30    31   ar
    25    31    32   ar
    26    32    33   ar
    27    33    34   ar
    28    34    35   ar
    29    35    36   ar
    30    36    37   ar
    31    37    38   ar
    32     8     9   ar
    33     9    10    2
    34     9    11   ar
    35    11    12    1
    36     5     1   ar
    37    38    29   ar
    38    19    13    1
    39    11     4   ar
    40    38    33   ar
    41    18    20    1
    42    18    21    1
@<TRIPOS>MOLECULE
*****
 38 42 0 0 0
SMALL
GASTEIGER

@<TRIPOS>ATOM
      1 N         140.8917  139.1197  158.1044 N.ar    1  UNL1       -0.2986
      2 C         141.8699  138.5403  157.1259 C.ar    1  UNL1        0.1245
      3 C         142.7969  139.6371  156.6926 C.ar    1  UNL1        0.1157
      4 C         142.3916  140.8944  157.4033 C.ar    1  UNL1        0.0967
      5 C         141.2142  140.5745  158.2758 C.ar    1  UNL1        0.1354
      6 C         140.5876  141.6495  159.1138 C.ar    1  UNL1        0.2819
      7 O         139.4102  141.3297  159.9863 O.2     1  UNL1       -0.2652
      8 N         141.1386  143.0442  159.0792 N.ar    1  UNL1       -0.2417
      9 C         142.3161  143.3640  158.2066 C.ar    1  UNL1        0.3342
     10 O         142.8671  144.7587  158.1720 O.2     1  UNL1       -0.2462
     11 N         142.9426  142.2891  157.3687 N.ar    1  UNL1       -0.2770
     12 C         144.1200  142.6089  156.4962 C.3     1  UNL1        0.1351
     13 N         141.9135  137.1144  156.6621 N.pl3   1  UNL1       -0.2926
     14 C         140.9771  136.6462  155.5880 C.3     1  UNL1        0.0922
     15 C         141.0207  135.2204  155.1243 C.3     1  UNL1        0.0229
     16 C         142.0007  134.2628  155.7347 C.3     1  UNL1        0.0190
     17 C         142.9372  134.7311  156.8088 C.3     1  UNL1        0.0709
     18 N         143.9172  133.7735  157.4192 N.3     1  UNL1       -0.3208
     19 C         142.8935  136.1569  157.2725 C.3     1  UNL1        0.1075
     20 H         143.8088  132.8553  156.9883 H       1  UNL1        0.1189
     21 H         143.7428  133.7014  158.4216 H       1  UNL1        0.1189
     22 C         143.9302  139.5007  155.7195 C.1     1  UNL1        0.1047
     23 N         145.0636  139.3642  154.7464 N.1     1  UNL1       -0.1907
     24 C         139.7853  138.3750  158.7909 C.3     1  UNL1        0.1842
     25 C         139.9285  137.7339  163.2428 C.3     1  UNL1        0.0900
     26 C         139.8808  137.9476  161.7588 C.1     1  UNL1       -0.0881
     27 C         139.8331  138.1613  160.2748 C.1     1  UNL1       -0.0656
     28 C         140.5121  144.1191  159.9170 C.3     1  UNL1        0.1593
     29 C         140.9933  144.3539  161.3182 C.ar    1  UNL1        0.0821
     30 N         142.4469  144.6179  161.5777 N.ar    1  UNL1       -0.2462
     31 C         142.9281  144.8528  162.9789 C.ar    1  UNL1        0.0985
     32 C         141.9557  144.8236  164.1206 C.ar    1  UNL1        0.0207
     33 C         140.5020  144.5595  163.8612 C.ar    1  UNL1        0.0027
     34 C         139.5296  144.5303  165.0029 C.ar    1  UNL1        0.0001
     35 C         138.0761  144.2662  164.7434 C.ar    1  UNL1        0.0000
     36 C         137.5949  144.0314  163.3422 C.ar    1  UNL1        0.0000
     37 C         138.5673  144.0606  162.2005 C.ar    1  UNL1        0.0012
     38 C         140.0208  144.3247  162.4600 C.ar    1  UNL1        0.0155
@<TRIPOS>BOND
     1    25    26    1
     2    26    27    3
     3    27    24    1
     4    24     1    1
     5     1     2   ar
     6     2    13    1
     7    13    14    1
     8    14    15    1
     9    15    16    1
    10    16    17    1
    11    17    18    1
    12    17    19    1
    13     2     3   ar
    14     3    22    1
    15    22    23    3
    16     3     4   ar
    17     4     5   ar
    18     5     6   ar
    19     6     7    2
    20     6     8   ar
    21     8    28    1
    22    28    29    1
    23    29    30   ar
    24    30    31   ar
    25    31    32   ar
    26    32    33   ar
    27    33    34   ar
    28    34    35   ar
    29    35    36   ar
    30    36    37   ar
    31    37    38   ar
    32     8     9   ar
    33     9    10    2
    34     9    11   ar
    35    11    12    1
    36     5     1   ar
    37    38    29   ar
    38    19    13    1
    39    11     4   ar
    40    38    33   ar
    41    18    20    1
    42    18    21    1
@<TRIPOS>MOLECULE
*****
 38 42 0 0 0
SMALL
GASTEIGER

@<TRIPOS>ATOM
      1 N         142.2645  142.7732  164.1543 N.ar    1  UNL1       -0.2986
      2 C         142.4638  141.8069  165.2842 C.ar    1  UNL1        0.1245
      3 C         142.9862  140.5235  164.7099 C.ar    1  UNL1        0.1157
      4 C         143.1098  140.6965  163.2250 C.ar    1  UNL1        0.0967
      5 C         142.6638  142.0869  162.8817 C.ar    1  UNL1        0.1354
      6 C         142.6788  142.5485  161.4545 C.ar    1  UNL1        0.2819
      7 O         142.2328  143.9388  161.1112 O.2     1  UNL1       -0.2652
      8 N         143.1398  141.6196  160.3707 N.ar    1  UNL1       -0.2417
      9 C         143.5858  140.2292  160.7141 C.ar    1  UNL1        0.3342
     10 O         144.0468  139.3003  159.6303 O.2     1  UNL1       -0.2462
     11 N         143.5708  139.7677  162.1412 N.ar    1  UNL1       -0.2770
     12 C         144.0168  138.3773  162.4845 C.3     1  UNL1        0.1351
     13 N         142.1889  142.0768  166.7340 N.pl3   1  UNL1       -0.2926
     14 C         140.7746  142.1534  167.2276 C.3     1  UNL1        0.0922
     15 C         140.4998  142.4232  168.6773 C.3     1  UNL1        0.0229
     16 C         141.6393  142.6165  169.6333 C.3     1  UNL1        0.0190
     17 C         143.0537  142.5399  169.1397 C.3     1  UNL1        0.0709
     18 N         144.1932  142.7332  170.0958 N.3     1  UNL1       -0.3208
     19 C         143.3285  142.2701  167.6901 C.3     1  UNL1        0.1075
     20 H         143.8263  142.9052  171.0318 H       1  UNL1        0.1189
     21 H         144.7547  143.5312  169.7987 H       1  UNL1        0.1189
     22 C         143.3254  139.2845  165.4844 C.1     1  UNL1        0.1047
     23 N         143.6648  138.0455  166.2589 N.1     1  UNL1       -0.1907
     24 C         141.7554  144.1789  164.2758 C.3     1  UNL1        0.1842
     25 C         137.5104  144.9310  165.5660 C.3     1  UNL1        0.0900
     26 C         138.9254  144.6803  165.1360 C.1     1  UNL1       -0.0881
     27 C         140.3404  144.4296  164.7058 C.1     1  UNL1       -0.0656
     28 C         143.1548  142.0811  158.9436 C.3     1  UNL1        0.1593
     29 C         141.8720  142.1739  158.1718 C.ar    1  UNL1        0.0821
     30 N         141.0112  140.9578  157.9986 N.ar    1  UNL1       -0.2462
     31 C         139.7283  141.0506  157.2268 C.ar    1  UNL1        0.0985
     32 C         139.3062  142.3596  156.6282 C.ar    1  UNL1        0.0207
     33 C         140.1670  143.5758  156.8014 C.ar    1  UNL1        0.0027
     34 C         139.7449  144.8848  156.2028 C.ar    1  UNL1        0.0001
     35 C         140.6056  146.1010  156.3760 C.ar    1  UNL1        0.0000
     36 C         141.8885  146.0081  157.1478 C.ar    1  UNL1        0.0000
     37 C         142.3106  144.6992  157.7464 C.ar    1  UNL1        0.0012
     38 C         141.4499  143.4830  157.5732 C.ar    1  UNL1        0.0155
@<TRIPOS>BOND
     1    25    26    1
     2    26    27    3
     3    27    24    1
     4    24     1    1
     5     1     2   ar
     6     2    13    1
     7    13    14    1
     8    14    15    1
     9    15    16    1
    10    16    17    1
    11    17    18    1
    12    17    19    1
    13     2     3   ar
    14     3    22    1
    15    22    23    3
    16     3     4   ar
    17     4     5   ar
    18     5     6   ar
    19     6     7    2
    20     6     8   ar
    21     8    28    1
    22    28    29    1
    23    29    30   ar
    24    30    31   ar
    25    31    32   ar
    26    32    33   ar
    27    33    34   ar
    28    34    35   ar
    29    35    36   ar
    30    36    37   ar
    31    37    38   ar
    32     8     9   ar
    33     9    10    2
    34     9    11   ar
    35    11    12    1
    36     5     1   ar
    37    38    29   ar
    38    19    13    1
    39    11     4   ar
    40    38    33   ar
    41    18    20    1
    42    18    21    1
@<TRIPOS>MOLECULE
*****
 38 42 0 0 0
SMALL
GASTEIGER

@<TRIPOS>ATOM
      1 N         143.0971  141.9753  160.6170 N.ar    1  UNL1       -0.2986
      2 C         142.8978  141.8168  159.1388 C.ar    1  UNL1        0.1245
      3 C         141.4280  141.9154  158.8560 C.ar    1  UNL1        0.1157
      4 C         140.7189  142.1347  160.1595 C.ar    1  UNL1        0.0967
      5 C         141.7505  142.1718  161.2478 C.ar    1  UNL1        0.1354
      6 C         141.3304  142.3796  162.6728 C.ar    1  UNL1        0.2819
      7 O         142.3620  142.4167  163.7610 O.2     1  UNL1       -0.2652
      8 N         139.8786  142.5504  163.0093 N.ar    1  UNL1       -0.2417
      9 C         138.8470  142.5134  161.9209 C.ar    1  UNL1        0.3342
     10 O         137.3953  142.6842  162.2575 O.2     1  UNL1       -0.2462
     11 N         139.2672  142.3056  160.4961 N.ar    1  UNL1       -0.2770
     12 C         138.2356  142.2685  159.4078 C.3     1  UNL1        0.1351
     13 N         143.9786  141.5982  158.1218 N.pl3   1  UNL1       -0.2926
     14 C         143.9283  140.4010  157.2195 C.3     1  UNL1        0.0922
     15 C         145.0091  140.1824  156.2026 C.3     1  UNL1        0.0229
     16 C         146.1401  141.1610  156.0880 C.3     1  UNL1        0.0190
     17 C         146.1903  142.3582  156.9902 C.3     1  UNL1        0.0709
     18 N         147.3213  143.3368  156.8756 N.3     1  UNL1       -0.3208
     19 C         145.1096  142.5768  158.0072 C.3     1  UNL1        0.1075
     20 H         147.9591  143.0346  156.1392 H       1  UNL1        0.1189
     21 H         147.8230  143.3821  157.7626 H       1  UNL1        0.1189
     22 C         140.7808  141.8126  157.5068 C.1     1  UNL1        0.1047
     23 N         140.1336  141.7099  156.1574 N.1     1  UNL1       -0.1907
     24 C         144.4122  141.9430  161.3378 C.3     1  UNL1        0.1842
     25 C         145.0687  139.0144  164.6909 C.3     1  UNL1        0.0900
     26 C         144.8498  139.9906  163.5732 C.1     1  UNL1       -0.0881
     27 C         144.6310  140.9668  162.4555 C.1     1  UNL1       -0.0656
     28 C         139.4585  142.7583  164.4342 C.3     1  UNL1        0.1593
     29 C         139.1966  141.5757  165.3190 C.ar    1  UNL1        0.0821
     30 N         138.3098  140.4639  164.8421 N.ar    1  UNL1       -0.2462
     31 C         138.0480  139.2814  165.7270 C.ar    1  UNL1        0.0985
     32 C         138.6729  139.2106  167.0887 C.ar    1  UNL1        0.0207
     33 C         139.5598  140.3224  167.5657 C.ar    1  UNL1        0.0027
     34 C         140.1847  140.2517  168.9274 C.ar    1  UNL1        0.0001
     35 C         141.0715  141.3635  169.4043 C.ar    1  UNL1        0.0000
     36 C         141.3333  142.5460  168.5195 C.ar    1  UNL1        0.0000
     37 C         140.7084  142.6168  167.1577 C.ar    1  UNL1        0.0012
     38 C         139.8216  141.5050  166.6808 C.ar    1  UNL1        0.0155
@<TRIPOS>BOND
     1    25    26    1
     2    26    27    3
     3    27    24    1
     4    24     1    1
     5     1     2   ar
     6     2    13    1
     7    13    14    1
     8    14    15    1
     9    15    16    1
    10    16    17    1
    11    17    18    1
    12    17    19    1
    13     2     3   ar
    14     3    22    1
    15    22    23    3
    16     3     4   ar
    17     4     5   ar
    18     5     6   ar
    19     6     7    2
    20     6     8   ar
    21     8    28    1
    22    28    29    1
    23    29    30   ar
    24    30    31   ar
    25    31    32   ar
    26    32    33   ar
    27    33    34   ar
    28    34    35   ar
    29    35    36   ar
    30    36    37   ar
    31    37    38   ar
    32     8     9   ar
    33     9    10    2
    34     9    11   ar
    35    11    12    1
    36     5     1   ar
    37    38    29   ar
    38    19    13    1
    39    11     4   ar
    40    38    33   ar
    41    18    20    1
    42    18    21    1
@<TRIPOS>MOLECULE
*****
 38 42 0 0 0
SMALL
GASTEIGER

@<TRIPOS>ATOM
      1 N         141.2375  140.4485  165.5171 N.ar    1  UNL1       -0.2986
      2 C         142.1265  141.3426  166.3296 C.ar    1  UNL1        0.1245
      3 C         143.0693  142.0356  165.3910 C.ar    1  UNL1        0.1157
      4 C         142.7629  141.5697  163.9985 C.ar    1  UNL1        0.0967
      5 C         141.6308  140.5889  164.0765 C.ar    1  UNL1        0.1354
      6 C         141.1042  139.9502  162.8255 C.ar    1  UNL1        0.2819
      7 O         139.9721  138.9693  162.9035 O.2     1  UNL1       -0.2652
      8 N         141.7099  140.2924  161.4965 N.ar    1  UNL1       -0.2417
      9 C         142.8421  141.2734  161.4186 C.ar    1  UNL1        0.3342
     10 O         143.4477  141.6156  160.0897 O.2     1  UNL1       -0.2462
     11 N         143.3685  141.9120  162.6695 N.ar    1  UNL1       -0.2770
     12 C         144.5006  142.8929  162.5915 C.3     1  UNL1        0.1351
     13 N         142.0808  141.5137  167.8191 N.pl3   1  UNL1       -0.2926
     14 C         141.3777  142.6962  168.4170 C.3     1  UNL1        0.0922
     15 C         141.3320  142.8672  169.9065 C.3     1  UNL1        0.0229
     16 C         141.9895  141.8559  170.7981 C.3     1  UNL1        0.0190
     17 C         142.6926  140.6735  170.2002 C.3     1  UNL1        0.0709
     18 N         143.3500  139.6621  171.0918 N.3     1  UNL1       -0.3208
     19 C         142.7382  140.5024  168.7107 C.3     1  UNL1        0.1075
     20 H         143.2218  139.9339  172.0666 H       1  UNL1        0.1189
     21 H         144.3466  139.6183  170.8793 H       1  UNL1        0.1189
     22 C         144.1319  143.0214  165.7771 C.1     1  UNL1        0.1047
     23 N         145.1946  144.0073  166.1631 N.1     1  UNL1       -0.1907
     24 C         140.1466  139.5684  166.0515 C.3     1  UNL1        0.1842
     25 C         138.5252  140.2576  170.1924 C.3     1  UNL1        0.0900
     26 C         139.0656  140.0279  168.8121 C.1     1  UNL1       -0.0881
     27 C         139.6062  139.7982  167.4318 C.1     1  UNL1       -0.0656
     28 C         141.1834  139.6538  160.2456 C.3     1  UNL1        0.1593
     29 C         140.1583  140.3663  159.4139 C.ar    1  UNL1        0.0821
     30 N         139.5694  141.6593  159.8948 N.ar    1  UNL1       -0.2462
     31 C         138.5444  142.3717  159.0632 C.ar    1  UNL1        0.0985
     32 C         138.1082  141.7912  157.7507 C.ar    1  UNL1        0.0207
     33 C         138.6972  140.4982  157.2697 C.ar    1  UNL1        0.0027
     34 C         138.2610  139.9177  155.9572 C.ar    1  UNL1        0.0001
     35 C         138.8500  138.6247  155.4763 C.ar    1  UNL1        0.0000
     36 C         139.8750  137.9122  156.3080 C.ar    1  UNL1        0.0000
     37 C         140.3111  138.4927  157.6205 C.ar    1  UNL1        0.0012
     38 C         139.7222  139.7857  158.1014 C.ar    1  UNL1        0.0155
@<TRIPOS>BOND
     1    25    26    1
     2    26    27    3
     3    27    24    1
     4    24     1    1
     5     1     2   ar
     6     2    13    1
     7    13    14    1
     8    14    15    1
     9    15    16    1
    10    16    17    1
    11    17    18    1
    12    17    19    1
    13     2     3   ar
    14     3    22    1
    15    22    23    3
    16     3     4   ar
    17     4     5   ar
    18     5     6   ar
    19     6     7    2
    20     6     8   ar
    21     8    28    1
    22    28    29    1
    23    29    30   ar
    24    30    31   ar
    25    31    32   ar
    26    32    33   ar
    27    33    34   ar
    28    34    35   ar
    29    35    36   ar
    30    36    37   ar
    31    37    38   ar
    32     8     9   ar
    33     9    10    2
    34     9    11   ar
    35    11    12    1
    36     5     1   ar
    37    38    29   ar
    38    19    13    1
    39    11     4   ar
    40    38    33   ar
    41    18    20    1
    42    18    21    1
