@<TRIPOS>MOLECULE
*****
 35 39 0 0 0
SMALL
GASTEIGER

@<TRIPOS>ATOM
      1 N         142.4554  141.3335  167.1244 N.ar    1  UNL1       -0.2815
      2 C         142.6099  141.9915  168.4634 C.ar    1  UNL1        0.3316
      3 O         143.7473  142.8732  168.8866 O.2     1  UNL1       -0.2463
      4 N         141.4273  141.6132  169.3050 N.ar    1  UNL1       -0.2765
      5 C         141.1744  142.0500  170.7175 C.3     1  UNL1        0.1352
      6 C         140.5419  140.7213  168.4860 C.ar    1  UNL1        0.0989
      7 C         139.2392  140.0442  168.7933 C.ar    1  UNL1        0.1175
      8 N         138.5720  139.1943  167.7530 N.ar    1  UNL1       -0.2422
      9 C         139.2074  139.0215  166.4053 C.ar    1  UNL1        0.0850
     10 C         138.5401  138.1715  165.3649 C.ar    1  UNL1        0.0488
     11 C         139.1756  137.9987  164.0172 C.ar    1  UNL1        0.1416
     12 F         138.5083  137.1488  162.9768 F       1  UNL1       -0.2041
     13 C         140.4783  138.6758  163.7099 C.ar    1  UNL1        0.0291
     14 C         141.1456  139.5257  164.7502 C.ar    1  UNL1        0.0053
     15 C         140.5101  139.6985  166.0979 C.ar    1  UNL1        0.0352
     16 C         141.1774  140.5484  167.1383 C.ar    1  UNL1        0.0826
     17 C         141.1138  138.5030  162.3621 C.ar    1  UNL1        0.0216
     18 C         142.5194  137.9901  162.2559 C.ar    1  UNL1        0.0064
     19 C         143.1549  137.8172  160.9082 C.ar    1  UNL1        0.0577
     20 C         142.3847  138.1573  159.6667 C.ar    1  UNL1        0.2249
     21 N         140.9792  138.6701  159.7730 N.ar    1  UNL1       -0.2101
     22 C         140.3437  138.8430  161.1207 C.ar    1  UNL1        0.1021
     23 O         143.0202  137.9844  158.3190 O.3     1  UNL1       -0.4602
     24 C         142.1972  137.5137  157.1566 C.3     1  UNL1        0.2085
     25 C         142.8717  137.0004  155.9191 C.3     1  UNL1        0.0647
     26 C         143.7270  135.7700  155.9865 C.3     1  UNL1        0.0760
     27 N         143.1576  134.4892  156.5207 N.3     1  UNL1       -0.2702
     28 C         142.0967  133.7610  155.7497 C.3     1  UNL1        0.0897
     29 C         143.6490  133.9366  157.8257 C.3     1  UNL1        0.0897
     30 C         144.7630  141.5942  164.3456 C.3     1  UNL1        0.1191
     31 C         144.0396  142.5757  165.2193 C.3     1  UNL1        0.0524
     32 C         143.4113  141.4415  165.9734 C.3     1  UNL1        0.0947
     33 C         144.1347  140.4599  165.0997 C.3     1  UNL1        0.0524
     34 C         145.2252  142.1435  161.8487 C.3     1  UNL1        0.1740
     35 O         145.7188  141.7023  163.1946 O.3     1  UNL1       -0.3534
@<TRIPOS>BOND
     1    34    35    1
     2    30    35    1
     3    30    31    1
     4    31    32    1
     5    32     1    1
     6     1     2   ar
     7     2     3    2
     8     2     4   ar
     9     4     5    1
    10     4     6   ar
    11     6     7   ar
    12     7     8   ar
    13     8     9   ar
    14     9    10   ar
    15    10    11   ar
    16    11    12    1
    17    11    13   ar
    18    13    17    1
    19    17    18   ar
    20    18    19   ar
    21    19    20   ar
    22    20    23    1
    23    23    24    1
    24    24    25    1
    25    25    26    1
    26    26    27    1
    27    27    28    1
    28    27    29    1
    29    20    21   ar
    30    21    22   ar
    31    13    14   ar
    32    14    15   ar
    33    15    16   ar
    34    32    33    1
    35    33    30    1
    36    16     1   ar
    37    16     6   ar
    38    15     9   ar
    39    22    17   ar
@<TRIPOS>MOLECULE
*****
 35 39 0 0 0
SMALL
GASTEIGER

@<TRIPOS>ATOM
      1 N         140.1000  139.9672  166.6228 N.ar    1  UNL1       -0.2815
      2 C         139.3792  139.9277  167.9376 C.ar    1  UNL1        0.3316
      3 O         138.1310  139.1511  168.2360 O.2     1  UNL1       -0.2463
      4 N         140.1258  140.8012  168.9018 N.ar    1  UNL1       -0.2765
      5 C         139.7553  141.0515  170.3336 C.3     1  UNL1        0.1352
      6 C         141.3079  141.3805  168.1829 C.ar    1  UNL1        0.0989
      7 C         142.3968  142.3107  168.6288 C.ar    1  UNL1        0.1175
      8 N         143.4698  142.7255  167.6662 N.ar    1  UNL1       -0.2422
      9 C         143.4538  142.2101  166.2576 C.ar    1  UNL1        0.0850
     10 C         144.5268  142.6249  165.2949 C.ar    1  UNL1        0.0488
     11 C         144.5109  142.1095  163.8864 C.ar    1  UNL1        0.1416
     12 F         145.5838  142.5243  162.9238 F       1  UNL1       -0.2041
     13 C         143.4219  141.1792  163.4405 C.ar    1  UNL1        0.0291
     14 C         142.3490  140.7644  164.4031 C.ar    1  UNL1        0.0053
     15 C         142.3649  141.2799  165.8117 C.ar    1  UNL1        0.0352
     16 C         141.2920  140.8651  166.7743 C.ar    1  UNL1        0.0826
     17 C         143.4059  140.6638  162.0319 C.ar    1  UNL1        0.0216
     18 C         142.6398  141.3994  160.9727 C.ar    1  UNL1        0.0064
     19 C         142.6238  140.8840  159.5641 C.ar    1  UNL1        0.0577
     20 C         143.3740  139.6329  159.2148 C.ar    1  UNL1        0.2249
     21 N         144.1401  138.8973  160.2739 N.ar    1  UNL1       -0.2101
     22 C         144.1561  139.4127  161.6825 C.ar    1  UNL1        0.1021
     23 O         143.3581  139.1174  157.8062 O.3     1  UNL1       -0.4602
     24 C         142.4665  137.9686  157.4380 C.3     1  UNL1        0.2085
     25 C         143.0228  136.8012  156.6779 C.3     1  UNL1        0.0647
     26 C         142.1333  135.6487  156.3170 C.3     1  UNL1        0.0760
     27 N         142.5895  134.2419  156.5678 N.3     1  UNL1       -0.2702
     28 C         142.0410  133.1169  155.7410 C.3     1  UNL1        0.0897
     29 C         143.5942  133.9602  157.6454 C.3     1  UNL1        0.0897
     30 C         139.1321  138.2045  163.6111 C.3     1  UNL1        0.1191
     31 C         140.0925  137.9401  164.7326 C.3     1  UNL1        0.0524
     32 C         139.6991  139.2370  165.3753 C.3     1  UNL1        0.0947
     33 C         138.7386  139.5014  164.2538 C.3     1  UNL1        0.0524
     34 C         139.1105  138.0216  161.0195 C.3     1  UNL1        0.1740
     35 O         138.7313  137.4743  162.3636 O.3     1  UNL1       -0.3534
@<TRIPOS>BOND
     1    34    35    1
     2    30    35    1
     3    30    31    1
     4    31    32    1
     5    32     1    1
     6     1     2   ar
     7     2     3    2
     8     2     4   ar
     9     4     5    1
    10     4     6   ar
    11     6     7   ar
    12     7     8   ar
    13     8     9   ar
    14     9    10   ar
    15    10    11   ar
    16    11    12    1
    17    11    13   ar
    18    13    17    1
    19    17    18   ar
    20    18    19   ar
    21    19    20   ar
    22    20    23    1
    23    23    24    1
    24    24    25    1
    25    25    26    1
    26    26    27    1
    27    27    28    1
    28    27    29    1
    29    20    21   ar
    30    21    22   ar
    31    13    14   ar
    32    14    15   ar
    33    15    16   ar
    34    32    33    1
    35    33    30    1
    36    16     1   ar
    37    16     6   ar
    38    15     9   ar
    39    22    17   ar
@<TRIPOS>MOLECULE
*****
 35 39 0 0 0
SMALL
GASTEIGER

@<TRIPOS>ATOM
      1 N         142.5365  143.2108  160.2546 N.ar    1  UNL1       -0.2815
      2 C         142.7763  143.6388  158.8371 C.ar    1  UNL1        0.3316
      3 O         143.7462  143.0130  157.8792 O.2     1  UNL1       -0.2463
      4 N         141.8759  144.8026  158.5458 N.ar    1  UNL1       -0.2765
      5 C         141.7873  145.5448  157.2453 C.3     1  UNL1        0.1352
      6 C         141.0796  145.0938  159.7831 C.ar    1  UNL1        0.0989
      7 C         140.0355  146.1277  160.0846 C.ar    1  UNL1        0.1175
      8 N         139.3997  146.1778  161.4422 N.ar    1  UNL1       -0.2422
      9 C         139.8080  145.1940  162.4984 C.ar    1  UNL1        0.0850
     10 C         139.1721  145.2442  163.8561 C.ar    1  UNL1        0.0488
     11 C         139.5804  144.2604  164.9122 C.ar    1  UNL1        0.1416
     12 F         138.9446  144.3105  166.2699 F       1  UNL1       -0.2041
     13 C         140.6245  143.2265  164.6107 C.ar    1  UNL1        0.0291
     14 C         141.2603  143.1764  163.2531 C.ar    1  UNL1        0.0053
     15 C         140.8520  144.1601  162.1969 C.ar    1  UNL1        0.0352
     16 C         141.4878  144.1100  160.8393 C.ar    1  UNL1        0.0826
     17 C         141.0328  142.2427  165.6669 C.ar    1  UNL1        0.0216
     18 C         142.3544  142.3922  166.3605 C.ar    1  UNL1        0.0064
     19 C         142.7627  141.4085  167.4166 C.ar    1  UNL1        0.0577
     20 C         141.8494  140.2751  167.7792 C.ar    1  UNL1        0.2249
     21 N         140.5278  140.1256  167.0856 N.ar    1  UNL1       -0.2101
     22 C         140.1195  141.1094  166.0295 C.ar    1  UNL1        0.1021
     23 O         142.2576  139.2913  168.8354 O.3     1  UNL1       -0.4602
     24 C         142.0100  139.5987  170.2826 C.3     1  UNL1        0.2085
     25 C         140.7836  140.3613  170.6881 C.3     1  UNL1        0.0647
     26 C         140.9164  141.7236  171.3016 C.3     1  UNL1        0.0760
     27 N         141.4279  142.8696  170.4800 N.3     1  UNL1       -0.2702
     28 C         140.4971  143.6135  169.5687 C.3     1  UNL1        0.0897
     29 C         142.8702  143.2718  170.5697 C.3     1  UNL1        0.0897
     30 C         144.1975  140.4852  161.9651 C.3     1  UNL1        0.1191
     31 C         142.9161  140.6331  161.1996 C.3     1  UNL1        0.0524
     32 C         143.2245  142.0818  160.9631 C.3     1  UNL1        0.0947
     33 C         144.5060  141.9339  161.7287 C.3     1  UNL1        0.0524
     34 C         144.7348  139.1991  164.1577 C.3     1  UNL1        0.1740
     35 O         144.8855  139.3561  162.6736 O.3     1  UNL1       -0.3534
@<TRIPOS>BOND
     1    34    35    1
     2    30    35    1
     3    30    31    1
     4    31    32    1
     5    32     1    1
     6     1     2   ar
     7     2     3    2
     8     2     4   ar
     9     4     5    1
    10     4     6   ar
    11     6     7   ar
    12     7     8   ar
    13     8     9   ar
    14     9    10   ar
    15    10    11   ar
    16    11    12    1
    17    11    13   ar
    18    13    17    1
    19    17    18   ar
    20    18    19   ar
    21    19    20   ar
    22    20    23    1
    23    23    24    1
    24    24    25    1
    25    25    26    1
    26    26    27    1
    27    27    28    1
    28    27    29    1
    29    20    21   ar
    30    21    22   ar
    31    13    14   ar
    32    14    15   ar
    33    15    16   ar
    34    32    33    1
    35    33    30    1
    36    16     1   ar
    37    16     6   ar
    38    15     9   ar
    39    22    17   ar
@<TRIPOS>MOLECULE
*****
 35 39 0 0 0
SMALL
GASTEIGER

@<TRIPOS>ATOM
      1 N         139.9711  139.9522  166.5215 N.ar    1  UNL1       -0.2815
      2 C         139.3369  139.7564  167.8667 C.ar    1  UNL1        0.3316
      3 O         138.1169  138.9326  168.1548 O.2     1  UNL1       -0.2463
      4 N         140.1369  140.5291  168.8731 N.ar    1  UNL1       -0.2765
      5 C         139.8574  140.6136  170.3445 C.3     1  UNL1        0.1352
      6 C         141.2655  141.2024  168.1500 C.ar    1  UNL1        0.0989
      7 C         142.3733  142.0941  168.6272 C.ar    1  UNL1        0.1175
      8 N         143.3785  142.6292  167.6510 N.ar    1  UNL1       -0.2422
      9 C         143.2760  142.2726  166.1976 C.ar    1  UNL1        0.0850
     10 C         144.2814  142.8078  165.2213 C.ar    1  UNL1        0.0488
     11 C         144.1789  142.4513  163.7679 C.ar    1  UNL1        0.1416
     12 F         145.1841  142.9864  162.7917 F       1  UNL1       -0.2041
     13 C         143.0710  141.5595  163.2908 C.ar    1  UNL1        0.0291
     14 C         142.0658  141.0244  164.2670 C.ar    1  UNL1        0.0053
     15 C         142.1683  141.3810  165.7204 C.ar    1  UNL1        0.0352
     16 C         141.1630  140.8458  166.6966 C.ar    1  UNL1        0.0826
     17 C         142.9685  141.2030  161.8374 C.ar    1  UNL1        0.0216
     18 C         142.3795  142.1814  160.8648 C.ar    1  UNL1        0.0064
     19 C         142.2770  141.8249  159.4114 C.ar    1  UNL1        0.0577
     20 C         142.7635  140.4899  158.9306 C.ar    1  UNL1        0.2249
     21 N         143.3525  139.5115  159.9031 N.ar    1  UNL1       -0.2101
     22 C         143.4550  139.8681  161.3565 C.ar    1  UNL1        0.1021
     23 O         142.6610  140.1333  157.4772 O.3     1  UNL1       -0.4602
     24 C         143.9058  139.9352  156.6639 C.3     1  UNL1        0.2085
     25 C         145.0824  140.8448  156.8599 C.3     1  UNL1        0.0647
     26 C         146.0988  141.0022  155.7681 C.3     1  UNL1        0.0760
     27 N         147.2798  141.9052  155.9673 N.3     1  UNL1       -0.2702
     28 C         147.3255  142.8311  157.1466 C.3     1  UNL1        0.0897
     29 C         148.4151  141.8824  154.9872 C.3     1  UNL1        0.0897
     30 C         138.8256  138.5191  163.3993 C.3     1  UNL1        0.1191
     31 C         139.7455  138.0729  164.4969 C.3     1  UNL1        0.0524
     32 C         139.4966  139.3585  165.2283 C.3     1  UNL1        0.0947
     33 C         138.5766  139.8048  164.1307 C.3     1  UNL1        0.0524
     34 C         139.1043  138.1933  160.8369 C.3     1  UNL1        0.1740
     35 O         138.3511  137.9254  162.1061 O.3     1  UNL1       -0.3534
@<TRIPOS>BOND
     1    34    35    1
     2    30    35    1
     3    30    31    1
     4    31    32    1
     5    32     1    1
     6     1     2   ar
     7     2     3    2
     8     2     4   ar
     9     4     5    1
    10     4     6   ar
    11     6     7   ar
    12     7     8   ar
    13     8     9   ar
    14     9    10   ar
    15    10    11   ar
    16    11    12    1
    17    11    13   ar
    18    13    17    1
    19    17    18   ar
    20    18    19   ar
    21    19    20   ar
    22    20    23    1
    23    23    24    1
    24    24    25    1
    25    25    26    1
    26    26    27    1
    27    27    28    1
    28    27    29    1
    29    20    21   ar
    30    21    22   ar
    31    13    14   ar
    32    14    15   ar
    33    15    16   ar
    34    32    33    1
    35    33    30    1
    36    16     1   ar
    37    16     6   ar
    38    15     9   ar
    39    22    17   ar
@<TRIPOS>MOLECULE
*****
 35 39 0 0 0
SMALL
GASTEIGER

@<TRIPOS>ATOM
      1 N         140.8250  143.2374  160.0432 N.ar    1  UNL1       -0.2815
      2 C         140.6421  144.0892  158.8222 C.ar    1  UNL1        0.3316
      3 O         141.3597  145.3729  158.5270 O.2     1  UNL1       -0.2463
      4 N         139.6156  143.4318  157.9481 N.ar    1  UNL1       -0.2765
      5 C         139.1264  143.9427  156.6253 C.3     1  UNL1        0.1352
      6 C         139.1640  142.1738  158.6289 C.ar    1  UNL1        0.0989
      7 C         138.1688  141.1221  158.2370 C.ar    1  UNL1        0.1175
      8 N         137.9211  139.9504  159.1401 N.ar    1  UNL1       -0.2422
      9 C         138.6686  139.8302  160.4350 C.ar    1  UNL1        0.0850
     10 C         138.4209  138.6584  161.3381 C.ar    1  UNL1        0.0488
     11 C         139.1684  138.5382  162.6330 C.ar    1  UNL1        0.1416
     12 F         138.9207  137.3664  163.5360 F       1  UNL1       -0.2041
     13 C         140.1636  139.5899  163.0248 C.ar    1  UNL1        0.0291
     14 C         140.4113  140.7617  162.1218 C.ar    1  UNL1        0.0053
     15 C         139.6638  140.8818  160.8269 C.ar    1  UNL1        0.0352
     16 C         139.9115  142.0536  159.9238 C.ar    1  UNL1        0.0826
     17 C         140.9111  139.4698  164.3197 C.ar    1  UNL1        0.0216
     18 C         141.9826  138.4313  164.4737 C.ar    1  UNL1        0.0064
     19 C         142.7301  138.3111  165.7686 C.ar    1  UNL1        0.0577
     20 C         142.4061  139.2295  166.9096 C.ar    1  UNL1        0.2249
     21 N         141.3348  140.2679  166.7556 N.ar    1  UNL1       -0.2101
     22 C         140.5873  140.3881  165.4607 C.ar    1  UNL1        0.1021
     23 O         143.1536  139.1093  168.2045 O.3     1  UNL1       -0.4602
     24 C         142.4122  139.1715  169.5070 C.3     1  UNL1        0.2085
     25 C         142.6735  140.2951  170.4658 C.3     1  UNL1        0.0647
     26 C         141.5303  141.1052  171.0014 C.3     1  UNL1        0.0760
     27 N         140.4236  141.5375  170.0858 N.3     1  UNL1       -0.2702
     28 C         139.1950  140.6891  169.9415 C.3     1  UNL1        0.0897
     29 C         140.5455  142.8182  169.3145 C.3     1  UNL1        0.0897
     30 C         143.0766  143.9192  162.7964 C.3     1  UNL1        0.1191
     31 C         143.1897  143.1936  161.4884 C.3     1  UNL1        0.0524
     32 C         141.7577  143.5198  161.1836 C.3     1  UNL1        0.0947
     33 C         141.6446  144.2454  162.4916 C.3     1  UNL1        0.0524
     34 C         144.1052  143.2391  165.0831 C.3     1  UNL1        0.1740
     35 O         144.0093  144.2016  163.9367 O.3     1  UNL1       -0.3534
@<TRIPOS>BOND
     1    34    35    1
     2    30    35    1
     3    30    31    1
     4    31    32    1
     5    32     1    1
     6     1     2   ar
     7     2     3    2
     8     2     4   ar
     9     4     5    1
    10     4     6   ar
    11     6     7   ar
    12     7     8   ar
    13     8     9   ar
    14     9    10   ar
    15    10    11   ar
    16    11    12    1
    17    11    13   ar
    18    13    17    1
    19    17    18   ar
    20    18    19   ar
    21    19    20   ar
    22    20    23    1
    23    23    24    1
    24    24    25    1
    25    25    26    1
    26    26    27    1
    27    27    28    1
    28    27    29    1
    29    20    21   ar
    30    21    22   ar
    31    13    14   ar
    32    14    15   ar
    33    15    16   ar
    34    32    33    1
    35    33    30    1
    36    16     1   ar
    37    16     6   ar
    38    15     9   ar
    39    22    17   ar
@<TRIPOS>MOLECULE
*****
 35 39 0 0 0
SMALL
GASTEIGER

@<TRIPOS>ATOM
      1 N         142.8462  139.6622  165.9324 N.ar    1  UNL1       -0.2815
      2 C         143.2154  138.8424  167.1330 C.ar    1  UNL1        0.3316
      3 O         144.1031  137.6332  167.1359 O.2     1  UNL1       -0.2463
      4 N         142.5411  139.4440  168.3302 N.ar    1  UNL1       -0.2765
      5 C         142.6360  138.9421  169.7406 C.3     1  UNL1        0.1352
      6 C         141.7551  140.6357  167.8695 C.ar    1  UNL1        0.0989
      7 C         140.8921  141.6154  168.6079 C.ar    1  UNL1        0.1175
      8 N         140.2177  142.7299  167.8644 N.ar    1  UNL1       -0.2422
      9 C         140.4063  142.8648  166.3824 C.ar    1  UNL1        0.0850
     10 C         139.7318  143.9794  165.6389 C.ar    1  UNL1        0.0488
     11 C         139.9204  144.1143  164.1569 C.ar    1  UNL1        0.1416
     12 F         139.2460  145.2289  163.4134 F       1  UNL1       -0.2041
     13 C         140.7835  143.1345  163.4185 C.ar    1  UNL1        0.0291
     14 C         141.4579  142.0200  164.1620 C.ar    1  UNL1        0.0053
     15 C         141.2693  141.8851  165.6440 C.ar    1  UNL1        0.0352
     16 C         141.9437  140.7705  166.3875 C.ar    1  UNL1        0.0826
     17 C         140.9721  143.2694  161.9365 C.ar    1  UNL1        0.0216
     18 C         140.1795  142.4083  160.9982 C.ar    1  UNL1        0.0064
     19 C         140.3681  142.5432  159.5162 C.ar    1  UNL1        0.0577
     20 C         141.3493  143.5391  158.9726 C.ar    1  UNL1        0.2249
     21 N         142.1418  144.4001  159.9109 N.ar    1  UNL1       -0.2101
     22 C         141.9532  144.2652  161.3929 C.ar    1  UNL1        0.1021
     23 O         141.5379  143.6740  157.4906 O.3     1  UNL1       -0.4602
     24 C         142.1928  144.9000  156.9264 C.3     1  UNL1        0.2085
     25 C         141.3610  146.0932  156.5599 C.3     1  UNL1        0.0647
     26 C         139.8721  146.0525  156.7369 C.3     1  UNL1        0.0760
     27 N         138.9715  146.4741  155.6138 N.3     1  UNL1       -0.2702
     28 C         137.9431  145.5218  155.0793 C.3     1  UNL1        0.0897
     29 C         139.0992  147.8479  155.0254 C.3     1  UNL1        0.0897
     30 C         143.9414  139.0698  162.5318 C.3     1  UNL1        0.1191
     31 C         144.4614  139.8692  163.6896 C.3     1  UNL1        0.0524
     32 C         143.2999  139.4169  164.5238 C.3     1  UNL1        0.0947
     33 C         142.7797  138.6174  163.3660 C.3     1  UNL1        0.0524
     34 C         143.7497  139.5626  159.9881 C.3     1  UNL1        0.1740
     35 O         144.3950  138.8244  161.1233 O.3     1  UNL1       -0.3534
@<TRIPOS>BOND
     1    34    35    1
     2    30    35    1
     3    30    31    1
     4    31    32    1
     5    32     1    1
     6     1     2   ar
     7     2     3    2
     8     2     4   ar
     9     4     5    1
    10     4     6   ar
    11     6     7   ar
    12     7     8   ar
    13     8     9   ar
    14     9    10   ar
    15    10    11   ar
    16    11    12    1
    17    11    13   ar
    18    13    17    1
    19    17    18   ar
    20    18    19   ar
    21    19    20   ar
    22    20    23    1
    23    23    24    1
    24    24    25    1
    25    25    26    1
    26    26    27    1
    27    27    28    1
    28    27    29    1
    29    20    21   ar
    30    21    22   ar
    31    13    14   ar
    32    14    15   ar
    33    15    16   ar
    34    32    33    1
    35    33    30    1
    36    16     1   ar
    37    16     6   ar
    38    15     9   ar
    39    22    17   ar
@<TRIPOS>MOLECULE
*****
 35 39 0 0 0
SMALL
GASTEIGER

@<TRIPOS>ATOM
      1 N         142.5404  141.3757  167.0648 N.ar    1  UNL1       -0.2815
      2 C         142.7877  142.0179  168.3976 C.ar    1  UNL1        0.3316
      3 O         143.9630  142.8776  168.7575 O.2     1  UNL1       -0.2463
      4 N         141.6533  141.6495  169.3072 N.ar    1  UNL1       -0.2765
      5 C         141.4950  142.0762  170.7365 C.3     1  UNL1        0.1352
      6 C         140.7049  140.7796  168.5366 C.ar    1  UNL1        0.0989
      7 C         139.4129  140.1198  168.9178 C.ar    1  UNL1        0.1175
      8 N         138.6692  139.2907  167.9131 N.ar    1  UNL1       -0.2422
      9 C         139.2175  139.1214  166.5272 C.ar    1  UNL1        0.0850
     10 C         138.4737  138.2922  165.5225 C.ar    1  UNL1        0.0488
     11 C         139.0220  138.1229  164.1366 C.ar    1  UNL1        0.1416
     12 F         138.2783  137.2938  163.1319 F       1  UNL1       -0.2041
     13 C         140.3140  138.7828  163.7554 C.ar    1  UNL1        0.0291
     14 C         141.0577  139.6120  164.7601 C.ar    1  UNL1        0.0053
     15 C         140.5095  139.7812  166.1460 C.ar    1  UNL1        0.0352
     16 C         141.2531  140.6104  167.1507 C.ar    1  UNL1        0.0826
     17 C         140.8623  138.6136  162.3695 C.ar    1  UNL1        0.0216
     18 C         140.0728  139.0916  161.1870 C.ar    1  UNL1        0.0064
     19 C         140.6211  138.9224  159.8011 C.ar    1  UNL1        0.0577
     20 C         141.9589  138.2750  159.5977 C.ar    1  UNL1        0.2249
     21 N         142.7483  137.7969  160.7801 N.ar    1  UNL1       -0.2101
     22 C         142.2000  137.9662  162.1660 C.ar    1  UNL1        0.1021
     23 O         142.5071  138.1057  158.2118 O.3     1  UNL1       -0.4602
     24 C         143.2131  139.2461  157.5400 C.3     1  UNL1        0.2085
     25 C         143.4059  140.5427  158.2692 C.3     1  UNL1        0.0647
     26 C         142.8831  141.8193  157.6802 C.3     1  UNL1        0.0760
     27 N         142.3221  142.8839  158.5757 N.3     1  UNL1       -0.2702
     28 C         142.4175  144.3267  158.1764 C.3     1  UNL1        0.0897
     29 C         141.6657  142.5058  159.8703 C.3     1  UNL1        0.0897
     30 C         144.6761  141.6282  164.1511 C.3     1  UNL1        0.1191
     31 C         143.9899  142.6120  165.0518 C.3     1  UNL1        0.0524
     32 C         143.4250  141.4803  165.8579 C.3     1  UNL1        0.0947
     33 C         144.1112  140.4963  164.9573 C.3     1  UNL1        0.0524
     34 C         144.9717  142.0877  161.6112 C.3     1  UNL1        0.1740
     35 O         145.5607  141.7328  162.9443 O.3     1  UNL1       -0.3534
@<TRIPOS>BOND
     1    34    35    1
     2    30    35    1
     3    30    31    1
     4    31    32    1
     5    32     1    1
     6     1     2   ar
     7     2     3    2
     8     2     4   ar
     9     4     5    1
    10     4     6   ar
    11     6     7   ar
    12     7     8   ar
    13     8     9   ar
    14     9    10   ar
    15    10    11   ar
    16    11    12    1
    17    11    13   ar
    18    13    17    1
    19    17    18   ar
    20    18    19   ar
    21    19    20   ar
    22    20    23    1
    23    23    24    1
    24    24    25    1
    25    25    26    1
    26    26    27    1
    27    27    28    1
    28    27    29    1
    29    20    21   ar
    30    21    22   ar
    31    13    14   ar
    32    14    15   ar
    33    15    16   ar
    34    32    33    1
    35    33    30    1
    36    16     1   ar
    37    16     6   ar
    38    15     9   ar
    39    22    17   ar
@<TRIPOS>MOLECULE
*****
 35 39 0 0 0
SMALL
GASTEIGER

@<TRIPOS>ATOM
      1 N         142.4591  141.3296  167.1049 N.ar    1  UNL1       -0.2815
      2 C         142.6245  141.9708  168.4508 C.ar    1  UNL1        0.3316
      3 O         143.7659  142.8462  168.8762 O.2     1  UNL1       -0.2463
      4 N         141.4481  141.5828  169.2968 N.ar    1  UNL1       -0.2765
      5 C         141.2066  142.0021  170.7166 C.3     1  UNL1        0.1352
      6 C         140.5557  140.7019  168.4737 C.ar    1  UNL1        0.0989
      7 C         139.2548  140.0220  168.7827 C.ar    1  UNL1        0.1175
      8 N         138.5788  139.1856  167.7370 N.ar    1  UNL1       -0.2422
      9 C         139.2036  139.0291  166.3823 C.ar    1  UNL1        0.0850
     10 C         138.5275  138.1927  165.3366 C.ar    1  UNL1        0.0488
     11 C         139.1523  138.0363  163.9820 C.ar    1  UNL1        0.1416
     12 F         138.4763  137.1999  162.9363 F       1  UNL1       -0.2041
     13 C         140.4533  138.7162  163.6730 C.ar    1  UNL1        0.0291
     14 C         141.1293  139.5526  164.7187 C.ar    1  UNL1        0.0053
     15 C         140.5045  139.7090  166.0733 C.ar    1  UNL1        0.0352
     16 C         141.1805  140.5454  167.1190 C.ar    1  UNL1        0.0826
     17 C         141.0781  138.5597  162.3183 C.ar    1  UNL1        0.0216
     18 C         140.3665  139.0707  161.1007 C.ar    1  UNL1        0.0064
     19 C         140.9913  138.9143  159.7460 C.ar    1  UNL1        0.0577
     20 C         142.3277  138.2468  159.6090 C.ar    1  UNL1        0.2249
     21 N         143.0392  137.7358  160.8266 N.ar    1  UNL1       -0.2101
     22 C         142.4144  137.8923  162.1813 C.ar    1  UNL1        0.1021
     23 O         142.9525  138.0903  158.2543 O.3     1  UNL1       -0.4602
     24 C         142.7350  136.8309  157.4690 C.3     1  UNL1        0.2085
     25 C         141.6702  136.7795  156.4138 C.3     1  UNL1        0.0647
     26 C         141.1686  138.0490  155.7920 C.3     1  UNL1        0.0760
     27 N         142.0727  138.8622  154.9138 N.3     1  UNL1       -0.2702
     28 C         142.5723  140.1966  155.3828 C.3     1  UNL1        0.0897
     29 C         142.4771  138.3412  153.5666 C.3     1  UNL1        0.0897
     30 C         144.7452  141.6235  164.3118 C.3     1  UNL1        0.1191
     31 C         144.1229  140.4804  165.0574 C.3     1  UNL1        0.0524
     32 C         143.4060  141.4513  165.9480 C.3     1  UNL1        0.0947
     33 C         144.0283  142.5946  165.2023 C.3     1  UNL1        0.0524
     34 C         145.1707  142.0946  161.7924 C.3     1  UNL1        0.1740
     35 O         145.6921  141.7452  163.1548 O.3     1  UNL1       -0.3534
@<TRIPOS>BOND
     1    34    35    1
     2    30    35    1
     3    30    31    1
     4    31    32    1
     5    32     1    1
     6     1     2   ar
     7     2     3    2
     8     2     4   ar
     9     4     5    1
    10     4     6   ar
    11     6     7   ar
    12     7     8   ar
    13     8     9   ar
    14     9    10   ar
    15    10    11   ar
    16    11    12    1
    17    11    13   ar
    18    13    17    1
    19    17    18   ar
    20    18    19   ar
    21    19    20   ar
    22    20    23    1
    23    23    24    1
    24    24    25    1
    25    25    26    1
    26    26    27    1
    27    27    28    1
    28    27    29    1
    29    20    21   ar
    30    21    22   ar
    31    13    14   ar
    32    14    15   ar
    33    15    16   ar
    34    32    33    1
    35    33    30    1
    36    16     1   ar
    37    16     6   ar
    38    15     9   ar
    39    22    17   ar
@<TRIPOS>MOLECULE
*****
 35 39 0 0 0
SMALL
GASTEIGER

@<TRIPOS>ATOM
      1 N         139.9707  140.4801  166.7725 N.ar    1  UNL1       -0.2815
      2 C         139.5219  140.0003  168.1209 C.ar    1  UNL1        0.3316
      3 O         138.2944  139.1856  168.4032 O.2     1  UNL1       -0.2463
      4 N         140.5160  140.4781  169.1374 N.ar    1  UNL1       -0.2765
      5 C         140.4572  140.2252  170.6148 C.3     1  UNL1        0.1352
      6 C         141.5793  141.2533  168.4173 C.ar    1  UNL1        0.0989
      7 C         142.8107  141.9582  168.9036 C.ar    1  UNL1        0.1175
      8 N         143.7052  142.6643  167.9283 N.ar    1  UNL1       -0.2422
      9 C         143.3682  142.6655  166.4667 C.ar    1  UNL1        0.0850
     10 C         144.2627  143.3717  165.4913 C.ar    1  UNL1        0.0488
     11 C         143.9257  143.3730  164.0297 C.ar    1  UNL1        0.1416
     12 F         144.8202  144.0791  163.0544 F       1  UNL1       -0.2041
     13 C         142.6942  142.6680  163.5433 C.ar    1  UNL1        0.0291
     14 C         141.7997  141.9619  164.5187 C.ar    1  UNL1        0.0053
     15 C         142.1367  141.9607  165.9803 C.ar    1  UNL1        0.0352
     16 C         141.2423  141.2545  166.9556 C.ar    1  UNL1        0.0826
     17 C         142.3572  142.6693  162.0817 C.ar    1  UNL1        0.0216
     18 C         142.2051  143.9689  161.3482 C.ar    1  UNL1        0.0064
     19 C         141.8681  143.9701  159.8865 C.ar    1  UNL1        0.0577
     20 C         141.6832  142.6718  159.1584 C.ar    1  UNL1        0.2249
     21 N         141.8353  141.3723  159.8919 N.ar    1  UNL1       -0.2101
     22 C         142.1723  141.3710  161.3535 C.ar    1  UNL1        0.1021
     23 O         141.3462  142.6730  157.6967 O.3     1  UNL1       -0.4602
     24 C         140.1203  143.3876  157.2103 C.3     1  UNL1        0.2085
     25 C         138.7815  143.0730  157.8093 C.3     1  UNL1        0.0647
     26 C         138.0321  141.8501  157.3703 C.3     1  UNL1        0.0760
     27 N         136.8780  141.9784  156.4207 N.3     1  UNL1       -0.2702
     28 C         135.8536  140.8861  156.3335 C.3     1  UNL1        0.0897
     29 C         136.7484  143.1988  155.5583 C.3     1  UNL1        0.0897
     30 C         138.2812  139.8753  163.6270 C.3     1  UNL1        0.1191
     31 C         139.3851  139.1996  164.3851 C.3     1  UNL1        0.0524
     32 C         139.2710  140.2296  165.4696 C.3     1  UNL1        0.0947
     33 C         138.1670  140.9054  164.7114 C.3     1  UNL1        0.0524
     34 C         138.0488  140.3148  161.0769 C.3     1  UNL1        0.1740
     35 O         137.5814  139.6248  162.3241 O.3     1  UNL1       -0.3534
@<TRIPOS>BOND
     1    34    35    1
     2    30    35    1
     3    30    31    1
     4    31    32    1
     5    32     1    1
     6     1     2   ar
     7     2     3    2
     8     2     4   ar
     9     4     5    1
    10     4     6   ar
    11     6     7   ar
    12     7     8   ar
    13     8     9   ar
    14     9    10   ar
    15    10    11   ar
    16    11    12    1
    17    11    13   ar
    18    13    17    1
    19    17    18   ar
    20    18    19   ar
    21    19    20   ar
    22    20    23    1
    23    23    24    1
    24    24    25    1
    25    25    26    1
    26    26    27    1
    27    27    28    1
    28    27    29    1
    29    20    21   ar
    30    21    22   ar
    31    13    14   ar
    32    14    15   ar
    33    15    16   ar
    34    32    33    1
    35    33    30    1
    36    16     1   ar
    37    16     6   ar
    38    15     9   ar
    39    22    17   ar
