@<TRIPOS>MOLECULE
*****
 29 33 0 0 0
SMALL
GASTEIGER

@<TRIPOS>ATOM
      1 C         140.3289  138.9839  163.1653 C.ar    1  UNL1        0.1133
      2 C         139.0669  138.4513  163.7765 C.ar    1  UNL1        0.0189
      3 C         138.7559  138.7294  165.2174 C.ar    1  UNL1        0.0041
      4 C         139.7071  139.5400  166.0470 C.ar    1  UNL1        0.0333
      5 C         139.6685  139.9731  167.4826 C.ar    1  UNL1        0.0137
      6 C         140.9069  140.7735  167.7586 C.ar    1  UNL1        0.1315
      7 O         141.7106  140.8349  166.4936 O.2     1  UNL1       -0.4568
      8 C         140.9691  140.0726  165.4358 C.ar    1  UNL1        0.1459
      9 C         141.2801  139.7946  163.9950 C.ar    1  UNL1        0.0562
     10 C         141.1425  141.3429  169.1261 C.3     1  UNL1        0.0982
     11 C         142.1451  141.5738  168.0346 C.3     1  UNL1        0.0539
     12 C         143.3833  142.3741  168.3107 C.3     1  UNL1        0.1439
     13 O         143.6190  142.9435  169.6782 O.3     1  UNL1       -0.3537
     14 C         142.6164  142.7126  170.7698 C.3     1  UNL1        0.1439
     15 C         141.3782  141.9123  170.4937 C.3     1  UNL1        0.0539
     16 N         140.1398  141.1119  170.2177 N.3     1  UNL1       -0.2935
     17 C         138.9016  140.3116  169.9417 C.3     1  UNL1        0.0736
     18 C         138.6660  139.7422  168.5741 C.3     1  UNL1        0.0463
     19 H         139.8317  142.0315  170.5339 H       1  UNL1        0.1236
     20 O         140.1790  140.0857  161.3587 O.2     1  UNL1       -0.1642
     21 S         140.6399  138.7059  161.7244 S.O2    1  UNL1        0.0276
     22 O         141.1007  137.3262  162.0901 O.2     1  UNL1       -0.1642
     23 C         140.9508  138.4279  160.2836 C.ar    1  UNL1        0.1125
     24 C         142.3393  138.0298  159.8793 C.ar    1  UNL1        0.0189
     25 C         142.6503  137.7518  158.4385 C.ar    1  UNL1        0.0036
     26 C         141.5727  137.8719  157.4020 C.ar    1  UNL1        0.0297
     27 C         140.1841  138.2701  157.8062 C.ar    1  UNL1        0.1414
     28 F         139.1066  138.3902  156.7697 F       1  UNL1       -0.2041
     29 C         139.8732  138.5481  159.2471 C.ar    1  UNL1        0.0484
@<TRIPOS>BOND
     1    20    21    2
     2    21    22    2
     3    21    23    1
     4    23    24   ar
     5    24    25   ar
     6    25    26   ar
     7    26    27   ar
     8    27    28    1
     9    27    29   ar
    10    21     1    1
    11     1     2   ar
    12     2     3   ar
    13     3     4   ar
    14     4     5   ar
    15     5     6   ar
    16     6     7   ar
    17     7     8   ar
    18     8     9   ar
    19     6    10    1
    20    10    11    1
    21    11    12    1
    22    12    13    1
    23    13    14    1
    24    14    15    1
    25    10    16    1
    26    16    17    1
    27    17    18    1
    28    29    23   ar
    29     9     1   ar
    30    15    10    1
    31     8     4   ar
    32    18     5    1
    33    16    19    1
@<TRIPOS>MOLECULE
*****
 29 33 0 0 0
SMALL
GASTEIGER

@<TRIPOS>ATOM
      1 C         139.9939  143.5578  163.0682 C.ar    1  UNL1        0.1133
      2 C         139.3594  144.5691  163.9763 C.ar    1  UNL1        0.0189
      3 C         139.4636  144.4106  165.4644 C.ar    1  UNL1        0.0041
      4 C         140.2022  143.2409  166.0442 C.ar    1  UNL1        0.0333
      5 C         140.4688  142.8242  167.4602 C.ar    1  UNL1        0.0137
      6 C         141.2682  141.5553  167.4272 C.ar    1  UNL1        0.1315
      7 O         141.4955  141.1879  165.9908 O.2     1  UNL1       -0.4568
      8 C         140.8367  142.2296  165.1360 C.ar    1  UNL1        0.1459
      9 C         140.7326  142.3881  163.6481 C.ar    1  UNL1        0.0562
     10 C         141.6857  140.8984  168.7095 C.3     1  UNL1        0.0982
     11 C         142.0674  140.2864  167.3943 C.3     1  UNL1        0.0539
     12 C         142.8667  139.0176  167.3613 C.3     1  UNL1        0.1439
     13 O         143.2843  138.3607  168.6436 O.3     1  UNL1       -0.3537
     14 C         142.9026  138.9726  169.9588 C.3     1  UNL1        0.1439
     15 C         142.1033  140.2415  169.9917 C.3     1  UNL1        0.0539
     16 N         141.3039  141.5104  170.0247 N.3     1  UNL1       -0.2935
     17 C         140.5046  142.7792  170.0577 C.3     1  UNL1        0.0736
     18 C         140.0871  143.4361  168.7754 C.3     1  UNL1        0.0463
     19 H         142.1725  141.6964  170.5261 H       1  UNL1        0.1236
     20 O         138.3939  143.7421  161.6877 O.2     1  UNL1       -0.1642
     21 S         139.8898  143.7162  161.5802 S.O2    1  UNL1        0.0276
     22 O         141.3857  143.6904  161.4728 O.2     1  UNL1       -0.1642
     23 C         139.7857  143.8747  160.0923 C.ar    1  UNL1        0.1125
     24 C         139.0488  142.8522  159.2790 C.ar    1  UNL1        0.0189
     25 C         138.9447  143.0107  157.7910 C.ar    1  UNL1        0.0036
     26 C         139.5775  144.1915  157.1164 C.ar    1  UNL1        0.0297
     27 C         140.3145  145.2140  157.9297 C.ar    1  UNL1        0.1414
     28 F         140.9473  146.3948  157.2551 F       1  UNL1       -0.2041
     29 C         140.4186  145.0555  159.4177 C.ar    1  UNL1        0.0484
@<TRIPOS>BOND
     1    20    21    2
     2    21    22    2
     3    21    23    1
     4    23    24   ar
     5    24    25   ar
     6    25    26   ar
     7    26    27   ar
     8    27    28    1
     9    27    29   ar
    10    21     1    1
    11     1     2   ar
    12     2     3   ar
    13     3     4   ar
    14     4     5   ar
    15     5     6   ar
    16     6     7   ar
    17     7     8   ar
    18     8     9   ar
    19     6    10    1
    20    10    11    1
    21    11    12    1
    22    12    13    1
    23    13    14    1
    24    14    15    1
    25    10    16    1
    26    16    17    1
    27    17    18    1
    28    29    23   ar
    29     9     1   ar
    30    15    10    1
    31     8     4   ar
    32    18     5    1
    33    16    19    1
@<TRIPOS>MOLECULE
*****
 29 33 0 0 0
SMALL
GASTEIGER

@<TRIPOS>ATOM
      1 C         143.2992  142.7277  163.2230 C.ar    1  UNL1        0.1133
      2 C         144.4110  143.3141  164.0416 C.ar    1  UNL1        0.0189
      3 C         144.3879  143.1899  165.5363 C.ar    1  UNL1        0.0041
      4 C         143.2530  142.4793  166.2124 C.ar    1  UNL1        0.0333
      5 C         142.9608  142.2021  167.6573 C.ar    1  UNL1        0.0137
      6 C         141.6684  141.4444  167.7317 C.ar    1  UNL1        0.1315
      7 O         141.1619  141.2532  166.3328 O.2     1  UNL1       -0.4568
      8 C         142.1413  141.8928  165.3938 C.ar    1  UNL1        0.1459
      9 C         142.1643  142.0170  163.8992 C.ar    1  UNL1        0.0562
     10 C         141.1197  141.0263  169.0637 C.3     1  UNL1        0.0982
     11 C         140.3760  140.6866  167.8062 C.3     1  UNL1        0.0539
     12 C         139.0837  139.9289  167.8806 C.3     1  UNL1        0.1439
     13 O         138.5350  139.5109  169.2126 O.3     1  UNL1       -0.3537
     14 C         139.2787  139.8505  170.4702 C.3     1  UNL1        0.1439
     15 C         140.5711  140.6083  170.3957 C.3     1  UNL1        0.0539
     16 N         141.8635  141.3661  170.3213 N.3     1  UNL1       -0.2935
     17 C         143.1559  142.1238  170.2468 C.3     1  UNL1        0.0736
     18 C         143.7045  142.5418  168.9149 C.3     1  UNL1        0.0463
     19 H         142.0662  140.4836  170.7910 H       1  UNL1        0.1236
     20 O         143.2704  141.3580  161.6034 O.2     1  UNL1       -0.1642
     21 S         143.3223  142.8518  161.7284 S.O2    1  UNL1        0.0276
     22 O         143.3743  144.3457  161.8533 O.2     1  UNL1       -0.1642
     23 C         143.3454  142.9760  160.2337 C.ar    1  UNL1        0.1125
     24 C         142.2525  143.7209  159.5261 C.ar    1  UNL1        0.0189
     25 C         142.2756  143.8451  158.0314 C.ar    1  UNL1        0.0036
     26 C         143.3916  143.2244  157.2444 C.ar    1  UNL1        0.0297
     27 C         144.4845  142.4795  157.9520 C.ar    1  UNL1        0.1414
     28 F         145.6004  141.8588  157.1650 F       1  UNL1       -0.2041
     29 C         144.4614  142.3553  159.4467 C.ar    1  UNL1        0.0484
@<TRIPOS>BOND
     1    20    21    2
     2    21    22    2
     3    21    23    1
     4    23    24   ar
     5    24    25   ar
     6    25    26   ar
     7    26    27   ar
     8    27    28    1
     9    27    29   ar
    10    21     1    1
    11     1     2   ar
    12     2     3   ar
    13     3     4   ar
    14     4     5   ar
    15     5     6   ar
    16     6     7   ar
    17     7     8   ar
    18     8     9   ar
    19     6    10    1
    20    10    11    1
    21    11    12    1
    22    12    13    1
    23    13    14    1
    24    14    15    1
    25    10    16    1
    26    16    17    1
    27    17    18    1
    28    29    23   ar
    29     9     1   ar
    30    15    10    1
    31     8     4   ar
    32    18     5    1
    33    16    19    1
@<TRIPOS>MOLECULE
*****
 29 33 0 0 0
SMALL
GASTEIGER

@<TRIPOS>ATOM
      1 C         141.0322  139.9671  164.9243 C.ar    1  UNL1        0.1133
      2 C         142.2821  139.1589  164.7381 C.ar    1  UNL1        0.0189
      3 C         142.6415  138.6359  163.3789 C.ar    1  UNL1        0.0041
      4 C         141.7510  138.9211  162.2060 C.ar    1  UNL1        0.0333
      5 C         141.8457  138.5408  160.7581 C.ar    1  UNL1        0.0137
      6 C         140.6543  139.1139  160.0495 C.ar    1  UNL1        0.1315
      7 O         139.8233  139.8484  161.0594 O.2     1  UNL1       -0.4568
      8 C         140.5011  139.7293  162.3922 C.ar    1  UNL1        0.1459
      9 C         140.1417  140.2523  163.7513 C.ar    1  UNL1        0.0562
     10 C         140.4800  138.8929  158.5761 C.3     1  UNL1        0.0982
     11 C         139.4629  139.6870  159.3408 C.3     1  UNL1        0.0539
     12 C         138.2716  140.2601  158.6322 C.3     1  UNL1        0.1439
     13 O         138.0973  140.0391  157.1588 O.3     1  UNL1       -0.3537
     14 C         139.1144  139.2450  156.3941 C.3     1  UNL1        0.1439
     15 C         140.3058  138.6719  157.1027 C.3     1  UNL1        0.0539
     16 N         141.4972  138.0988  157.8114 N.3     1  UNL1       -0.2935
     17 C         142.6885  137.5257  158.5200 C.3     1  UNL1        0.0736
     18 C         142.8628  137.7467  159.9934 C.3     1  UNL1        0.0463
     19 H         141.8566  138.7094  157.0777 H       1  UNL1        0.1236
     20 O         141.6544  139.5431  166.9075 O.2     1  UNL1       -0.1642
     21 S         140.6727  140.4901  166.2835 S.O2    1  UNL1        0.0276
     22 O         139.6910  141.4371  165.6595 O.2     1  UNL1       -0.1642
     23 C         140.3133  141.0130  167.6426 C.ar    1  UNL1        0.1125
     24 C         139.5658  140.1416  168.6079 C.ar    1  UNL1        0.0189
     25 C         139.2063  140.6646  169.9671 C.ar    1  UNL1        0.0036
     26 C         139.5944  142.0590  170.3609 C.ar    1  UNL1        0.0297
     27 C         140.3419  142.9304  169.3956 C.ar    1  UNL1        0.1414
     28 F         140.7300  144.3248  169.7894 F       1  UNL1       -0.2041
     29 C         140.7014  142.4074  168.0364 C.ar    1  UNL1        0.0484
@<TRIPOS>BOND
     1    20    21    2
     2    21    22    2
     3    21    23    1
     4    23    24   ar
     5    24    25   ar
     6    25    26   ar
     7    26    27   ar
     8    27    28    1
     9    27    29   ar
    10    21     1    1
    11     1     2   ar
    12     2     3   ar
    13     3     4   ar
    14     4     5   ar
    15     5     6   ar
    16     6     7   ar
    17     7     8   ar
    18     8     9   ar
    19     6    10    1
    20    10    11    1
    21    11    12    1
    22    12    13    1
    23    13    14    1
    24    14    15    1
    25    10    16    1
    26    16    17    1
    27    17    18    1
    28    29    23   ar
    29     9     1   ar
    30    15    10    1
    31     8     4   ar
    32    18     5    1
    33    16    19    1
@<TRIPOS>MOLECULE
*****
 29 33 0 0 0
SMALL
GASTEIGER

@<TRIPOS>ATOM
      1 C         142.4841  141.1436  164.7712 C.ar    1  UNL1        0.1133
      2 C         143.6759  140.4791  164.1482 C.ar    1  UNL1        0.0189
      3 C         144.0899  140.8379  162.7517 C.ar    1  UNL1        0.0041
      4 C         143.3122  141.8612  161.9784 C.ar    1  UNL1        0.0333
      5 C         143.4809  142.4147  160.5945 C.ar    1  UNL1        0.0137
      6 C         142.3933  143.4214  160.3622 C.ar    1  UNL1        0.1315
      7 O         141.5526  143.4899  161.6026 O.2     1  UNL1       -0.4568
      8 C         142.1205  142.5257  162.6014 C.ar    1  UNL1        0.1459
      9 C         141.7064  142.1670  163.9978 C.ar    1  UNL1        0.0562
     10 C         142.3091  144.1455  159.0513 C.3     1  UNL1        0.0982
     11 C         141.3058  144.4280  160.1299 C.3     1  UNL1        0.0539
     12 C         140.2183  145.4346  159.8976 C.3     1  UNL1        0.1439
     13 O         140.1341  146.1587  158.5867 O.3     1  UNL1       -0.3537
     14 C         141.1374  145.8762  157.5081 C.3     1  UNL1        0.1439
     15 C         142.2249  144.8696  157.7404 C.3     1  UNL1        0.0539
     16 N         143.3125  143.8629  157.9726 N.3     1  UNL1       -0.2935
     17 C         144.4000  142.8563  158.2049 C.3     1  UNL1        0.0736
     18 C         144.4842  142.1322  159.5159 C.3     1  UNL1        0.0463
     19 H         143.7716  144.7482  157.7583 H       1  UNL1        0.1236
     20 O         142.9723  139.5873  166.1274 O.2     1  UNL1       -0.1642
     21 S         142.0700  140.7848  166.1675 S.O2    1  UNL1        0.0276
     22 O         141.1677  141.9824  166.2076 O.2     1  UNL1       -0.1642
     23 C         141.6559  140.4261  167.5639 C.ar    1  UNL1        0.1125
     24 C         142.6000  139.6771  168.4570 C.ar    1  UNL1        0.0189
     25 C         142.1859  139.3183  169.8533 C.ar    1  UNL1        0.0036
     26 C         140.8278  139.7085  170.3565 C.ar    1  UNL1        0.0297
     27 C         139.8837  140.4575  169.4634 C.ar    1  UNL1        0.1414
     28 F         138.5256  140.8478  169.9666 F       1  UNL1       -0.2041
     29 C         140.2978  140.8163  168.0671 C.ar    1  UNL1        0.0484
@<TRIPOS>BOND
     1    20    21    2
     2    21    22    2
     3    21    23    1
     4    23    24   ar
     5    24    25   ar
     6    25    26   ar
     7    26    27   ar
     8    27    28    1
     9    27    29   ar
    10    21     1    1
    11     1     2   ar
    12     2     3   ar
    13     3     4   ar
    14     4     5   ar
    15     5     6   ar
    16     6     7   ar
    17     7     8   ar
    18     8     9   ar
    19     6    10    1
    20    10    11    1
    21    11    12    1
    22    12    13    1
    23    13    14    1
    24    14    15    1
    25    10    16    1
    26    16    17    1
    27    17    18    1
    28    29    23   ar
    29     9     1   ar
    30    15    10    1
    31     8     4   ar
    32    18     5    1
    33    16    19    1
@<TRIPOS>MOLECULE
*****
 29 33 0 0 0
SMALL
GASTEIGER

@<TRIPOS>ATOM
      1 C         141.6685  139.2025  164.8920 C.ar    1  UNL1        0.1133
      2 C         141.2124  137.9074  164.2879 C.ar    1  UNL1        0.0189
      3 C         141.4589  137.6298  162.8345 C.ar    1  UNL1        0.0041
      4 C         142.1615  138.6473  161.9853 C.ar    1  UNL1        0.0333
      5 C         142.5416  138.6533  160.5343 C.ar    1  UNL1        0.0137
      6 C         143.2327  139.9521  160.2415 C.ar    1  UNL1        0.1315
      7 O         143.2796  140.7487  161.5116 O.2     1  UNL1       -0.4568
      8 C         142.6175  139.9423  162.5893 C.ar    1  UNL1        0.1459
      9 C         142.3711  140.2199  164.0426 C.ar    1  UNL1        0.0562
     10 C         143.7299  140.2415  158.8563 C.3     1  UNL1        0.0982
     11 C         143.9237  141.2508  159.9488 C.3     1  UNL1        0.0539
     12 C         144.6147  142.5495  159.6561 C.3     1  UNL1        0.1439
     13 O         145.1120  142.8389  158.2708 O.3     1  UNL1       -0.3537
     14 C         144.9182  141.8296  157.1783 C.3     1  UNL1        0.1439
     15 C         144.2271  140.5309  157.4710 C.3     1  UNL1        0.0539
     16 N         143.5361  139.2321  157.7637 N.3     1  UNL1       -0.2935
     17 C         142.8451  137.9334  158.0564 C.3     1  UNL1        0.0736
     18 C         142.3478  137.6440  159.4417 C.3     1  UNL1        0.0463
     19 H         144.4641  138.9988  157.4104 H       1  UNL1        0.1236
     20 O         142.7806  138.9390  166.6791 O.2     1  UNL1       -0.1642
     21 S         141.4220  139.4801  166.3453 S.O2    1  UNL1        0.0276
     22 O         140.0634  140.0212  166.0115 O.2     1  UNL1       -0.1642
     23 C         141.1756  139.7577  167.7986 C.ar    1  UNL1        0.1125
     24 C         142.3057  139.6705  168.7810 C.ar    1  UNL1        0.0189
     25 C         142.0593  139.9481  170.2343 C.ar    1  UNL1        0.0036
     26 C         140.6826  140.3130  170.7052 C.ar    1  UNL1        0.0297
     27 C         139.5524  140.4002  169.7229 C.ar    1  UNL1        0.1414
     28 F         138.1758  140.7651  170.1938 F       1  UNL1       -0.2041
     29 C         139.7989  140.1226  168.2696 C.ar    1  UNL1        0.0484
@<TRIPOS>BOND
     1    20    21    2
     2    21    22    2
     3    21    23    1
     4    23    24   ar
     5    24    25   ar
     6    25    26   ar
     7    26    27   ar
     8    27    28    1
     9    27    29   ar
    10    21     1    1
    11     1     2   ar
    12     2     3   ar
    13     3     4   ar
    14     4     5   ar
    15     5     6   ar
    16     6     7   ar
    17     7     8   ar
    18     8     9   ar
    19     6    10    1
    20    10    11    1
    21    11    12    1
    22    12    13    1
    23    13    14    1
    24    14    15    1
    25    10    16    1
    26    16    17    1
    27    17    18    1
    28    29    23   ar
    29     9     1   ar
    30    15    10    1
    31     8     4   ar
    32    18     5    1
    33    16    19    1
@<TRIPOS>MOLECULE
*****
 29 33 0 0 0
SMALL
GASTEIGER

@<TRIPOS>ATOM
      1 C         140.4831  141.8056  164.8527 C.ar    1  UNL1        0.1133
      2 C         139.2008  142.3704  164.3170 C.ar    1  UNL1        0.0189
      3 C         138.7558  142.0318  162.9251 C.ar    1  UNL1        0.0041
      4 C         139.5930  141.1285  162.0689 C.ar    1  UNL1        0.0333
      5 C         139.4120  140.6211  160.6689 C.ar    1  UNL1        0.0137
      6 C         140.5825  139.7427  160.3394 C.ar    1  UNL1        0.1315
      7 O         141.4867  139.7073  161.5356 O.2     1  UNL1       -0.4568
      8 C         140.8752  140.5637  162.6045 C.ar    1  UNL1        0.1459
      9 C         141.3203  140.9022  163.9964 C.ar    1  UNL1        0.0562
     10 C         140.6736  139.0887  158.9925 C.3     1  UNL1        0.0982
     11 C         141.7529  138.8644  160.0098 C.3     1  UNL1        0.0539
     12 C         142.9232  137.9860  159.6802 C.3     1  UNL1        0.1439
     13 O         143.0144  137.3320  158.3334 O.3     1  UNL1       -0.3537
     14 C         141.9351  137.5563  157.3161 C.3     1  UNL1        0.1439
     15 C         140.7647  138.4347  157.6457 C.3     1  UNL1        0.0539
     16 N         139.5943  139.3131  157.9753 N.3     1  UNL1       -0.2935
     17 C         138.4239  140.1914  158.3049 C.3     1  UNL1        0.0736
     18 C         138.3328  140.8454  159.6517 C.3     1  UNL1        0.0463
     19 H         139.2165  138.3954  157.7395 H       1  UNL1        0.1236
     20 O         141.8195  140.9378  166.2529 O.2     1  UNL1       -0.1642
     21 S         140.9281  142.1441  166.2445 S.O2    1  UNL1        0.0276
     22 O         140.0367  143.3505  166.2361 O.2     1  UNL1       -0.1642
     23 C         141.3732  142.4826  167.6364 C.ar    1  UNL1        0.1125
     24 C         140.4114  143.1149  168.5983 C.ar    1  UNL1        0.0189
     25 C         140.8565  143.4534  169.9902 C.ar    1  UNL1        0.0036
     26 C         142.2632  143.1597  170.4201 C.ar    1  UNL1        0.0297
     27 C         143.2250  142.5275  169.4581 C.ar    1  UNL1        0.1414
     28 F         144.6317  142.2338  169.8880 F       1  UNL1       -0.2041
     29 C         142.7799  142.1890  168.0663 C.ar    1  UNL1        0.0484
@<TRIPOS>BOND
     1    20    21    2
     2    21    22    2
     3    21    23    1
     4    23    24   ar
     5    24    25   ar
     6    25    26   ar
     7    26    27   ar
     8    27    28    1
     9    27    29   ar
    10    21     1    1
    11     1     2   ar
    12     2     3   ar
    13     3     4   ar
    14     4     5   ar
    15     5     6   ar
    16     6     7   ar
    17     7     8   ar
    18     8     9   ar
    19     6    10    1
    20    10    11    1
    21    11    12    1
    22    12    13    1
    23    13    14    1
    24    14    15    1
    25    10    16    1
    26    16    17    1
    27    17    18    1
    28    29    23   ar
    29     9     1   ar
    30    15    10    1
    31     8     4   ar
    32    18     5    1
    33    16    19    1
@<TRIPOS>MOLECULE
*****
 29 33 0 0 0
SMALL
GASTEIGER

@<TRIPOS>ATOM
      1 C         141.6857  142.4798  165.0469 C.ar    1  UNL1        0.1133
      2 C         142.2703  143.7787  164.5766 C.ar    1  UNL1        0.0189
      3 C         141.9672  144.2815  163.1962 C.ar    1  UNL1        0.0041
      4 C         141.0796  143.4854  162.2861 C.ar    1  UNL1        0.0333
      5 C         140.6065  143.7257  160.8831 C.ar    1  UNL1        0.0137
      6 C         139.7294  142.5753  160.4863 C.ar    1  UNL1        0.1315
      7 O         139.6605  141.6240  161.6440 O.2     1  UNL1       -0.4568
      8 C         140.4950  142.1865  162.7564 C.ar    1  UNL1        0.1459
      9 C         140.7980  141.6837  164.1367 C.ar    1  UNL1        0.0562
     10 C         139.1068  142.5426  159.1220 C.3     1  UNL1        0.0982
     11 C         138.8524  141.4250  160.0895 C.3     1  UNL1        0.0539
     12 C         137.9754  140.2746  159.6926 C.3     1  UNL1        0.1439
     13 O         137.3528  140.2420  158.3283 O.3     1  UNL1       -0.3537
     14 C         137.6072  141.3597  157.3609 C.3     1  UNL1        0.1439
     15 C         138.4843  142.5100  157.7577 C.3     1  UNL1        0.0539
     16 N         139.3613  143.6604  158.1545 N.3     1  UNL1       -0.2935
     17 C         140.2383  144.8107  158.5514 C.3     1  UNL1        0.0736
     18 C         140.8609  144.8434  159.9157 C.3     1  UNL1        0.0463
     19 H         138.4516  144.0534  157.9128 H       1  UNL1        0.1236
     20 O         140.6012  141.4163  166.5276 O.2     1  UNL1       -0.1642
     21 S         141.9887  141.9771  166.4272 S.O2    1  UNL1        0.0276
     22 O         143.3763  142.5379  166.3269 O.2     1  UNL1       -0.1642
     23 C         142.2918  141.4743  167.8076 C.ar    1  UNL1        0.1125
     24 C         142.4905  142.4460  168.9328 C.ar    1  UNL1        0.0189
     25 C         142.7936  141.9432  170.3132 C.ar    1  UNL1        0.0036
     26 C         142.8979  140.4688  170.5682 C.ar    1  UNL1        0.0297
     27 C         142.6991  139.4970  169.4430 C.ar    1  UNL1        0.1414
     28 F         142.8034  138.0225  169.6980 F       1  UNL1       -0.2041
     29 C         142.3961  139.9998  168.0626 C.ar    1  UNL1        0.0484
@<TRIPOS>BOND
     1    20    21    2
     2    21    22    2
     3    21    23    1
     4    23    24   ar
     5    24    25   ar
     6    25    26   ar
     7    26    27   ar
     8    27    28    1
     9    27    29   ar
    10    21     1    1
    11     1     2   ar
    12     2     3   ar
    13     3     4   ar
    14     4     5   ar
    15     5     6   ar
    16     6     7   ar
    17     7     8   ar
    18     8     9   ar
    19     6    10    1
    20    10    11    1
    21    11    12    1
    22    12    13    1
    23    13    14    1
    24    14    15    1
    25    10    16    1
    26    16    17    1
    27    17    18    1
    28    29    23   ar
    29     9     1   ar
    30    15    10    1
    31     8     4   ar
    32    18     5    1
    33    16    19    1
@<TRIPOS>MOLECULE
*****
 29 33 0 0 0
SMALL
GASTEIGER

@<TRIPOS>ATOM
      1 C         139.4692  141.3168  165.0371 C.ar    1  UNL1        0.1133
      2 C         138.7467  140.1017  164.5354 C.ar    1  UNL1        0.0189
      3 C         138.4158  139.9744  163.0778 C.ar    1  UNL1        0.0041
      4 C         138.8073  141.0622  162.1221 C.ar    1  UNL1        0.0333
      5 C         138.6172  141.2140  160.6419 C.ar    1  UNL1        0.0137
      6 C         139.2223  142.5230  160.2289 C.ar    1  UNL1        0.1315
      7 O         139.7862  143.1801  161.4537 O.2     1  UNL1       -0.4568
      8 C         139.5297  142.2773  162.6238 C.ar    1  UNL1        0.1459
      9 C         139.8607  142.4046  164.0812 C.ar    1  UNL1        0.0562
     10 C         139.1815  142.9475  158.7908 C.3     1  UNL1        0.0982
     11 C         139.8273  143.8319  159.8158 C.3     1  UNL1        0.0539
     12 C         140.4323  145.1409  159.4027 C.3     1  UNL1        0.1439
     13 O         140.3915  145.5653  157.9646 O.3     1  UNL1       -0.3537
     14 C         139.7457  144.6809  156.9396 C.3     1  UNL1        0.1439
     15 C         139.1407  143.3720  157.3526 C.3     1  UNL1        0.0539
     16 N         138.5357  142.0630  157.7657 N.3     1  UNL1       -0.2935
     17 C         137.9307  140.7541  158.1788 C.3     1  UNL1        0.0736
     18 C         137.9715  140.3296  159.6169 C.3     1  UNL1        0.0463
     19 H         139.2493  141.8505  157.0685 H       1  UNL1        0.1236
     20 O         139.1576  140.1143  166.7566 O.2     1  UNL1       -0.1642
     21 S         139.8001  141.4441  166.4946 S.O2    1  UNL1        0.0276
     22 O         140.4427  142.7739  166.2325 O.2     1  UNL1       -0.1642
     23 C         140.1311  141.5714  167.9520 C.ar    1  UNL1        0.1125
     24 C         140.7931  142.8159  168.4648 C.ar    1  UNL1        0.0189
     25 C         141.1241  142.9432  169.9223 C.ar    1  UNL1        0.0036
     26 C         140.7930  141.8260  170.8670 C.ar    1  UNL1        0.0297
     27 C         140.1310  140.5815  170.3542 C.ar    1  UNL1        0.1414
     28 F         139.7999  139.4644  171.2988 F       1  UNL1       -0.2041
     29 C         139.8000  140.4542  168.8967 C.ar    1  UNL1        0.0484
@<TRIPOS>BOND
     1    20    21    2
     2    21    22    2
     3    21    23    1
     4    23    24   ar
     5    24    25   ar
     6    25    26   ar
     7    26    27   ar
     8    27    28    1
     9    27    29   ar
    10    21     1    1
    11     1     2   ar
    12     2     3   ar
    13     3     4   ar
    14     4     5   ar
    15     5     6   ar
    16     6     7   ar
    17     7     8   ar
    18     8     9   ar
    19     6    10    1
    20    10    11    1
    21    11    12    1
    22    12    13    1
    23    13    14    1
    24    14    15    1
    25    10    16    1
    26    16    17    1
    27    17    18    1
    28    29    23   ar
    29     9     1   ar
    30    15    10    1
    31     8     4   ar
    32    18     5    1
    33    16    19    1
