@<TRIPOS>MOLECULE
*****
 31 34 0 0 0
SMALL
GASTEIGER

@<TRIPOS>ATOM
      1 C         140.1186  141.5378  163.9818 C.3     1  UNL1        0.1753
      2 C         139.6914  140.1399  163.6450 C.ar    1  UNL1        0.0089
      3 C         139.5350  139.4264  162.3349 C.ar    1  UNL1       -0.0021
      4 C         139.0810  137.9970  162.3090 C.ar    1  UNL1       -0.0003
      5 C         138.7834  137.2811  163.5931 C.ar    1  UNL1        0.0001
      6 C         138.9399  137.9947  164.9032 C.ar    1  UNL1        0.0043
      7 C         139.3939  139.4240  164.9291 C.ar    1  UNL1        0.0517
      8 C         139.6371  140.3795  166.0596 C.2     1  UNL1        0.2496
      9 O         139.4630  140.0810  167.5192 O.2     1  UNL1       -0.2699
     10 N         140.0850  141.6859  165.4741 N.am    1  UNL1       -0.2620
     11 N         139.4567  143.4535  162.3563 N.am    1  UNL1       -0.3059
     12 C         140.5105  142.6009  162.9989 C.2     1  UNL1        0.2448
     13 O         141.9560  142.8116  162.6585 O.2     1  UNL1       -0.2729
     14 H         138.5079  143.3153  162.5798 H       1  UNL1        0.1494
     15 C         139.9462  145.5132  162.4903 C.3     1  UNL1        0.0196
     16 C         139.8486  144.5167  161.3734 C.3     1  UNL1        0.0569
     17 C         139.7509  143.5201  160.2566 C.3     1  UNL1        0.0196
     18 C         140.2405  145.5797  160.3905 C.3     1  UNL1        0.0196
     19 C         140.4374  142.9231  166.2455 C.3     1  UNL1        0.1212
     20 C         141.1144  142.8082  167.5791 C.ar    1  UNL1       -0.0023
     21 C         140.3719  143.1708  168.8309 C.ar    1  UNL1       -0.0026
     22 C         141.0489  143.0558  170.1645 C.ar    1  UNL1       -0.0003
     23 C         142.4684  142.5782  170.2462 C.ar    1  UNL1       -0.0000
     24 C         143.2110  142.2155  168.9945 C.ar    1  UNL1       -0.0003
     25 C         142.5340  142.3305  167.6608 C.ar    1  UNL1       -0.0024
     26 C         143.2766  141.9678  166.4090 C.ar    1  UNL1       -0.0003
     27 C         143.2147  140.5656  165.8799 C.ar    1  UNL1       -0.0000
     28 C         143.9572  140.2029  164.6281 C.ar    1  UNL1       -0.0000
     29 C         144.7617  141.2425  163.9054 C.ar    1  UNL1       -0.0000
     30 C         144.8236  142.6447  164.4345 C.ar    1  UNL1       -0.0000
     31 C         144.0810  143.0073  165.6864 C.ar    1  UNL1       -0.0000
@<TRIPOS>BOND
     1    15    16    1
     2    16    17    1
     3    16    18    1
     4    16    11    1
     5    11    12   am
     6    12    13    2
     7    12     1    1
     8     1     2    1
     9     2     3   ar
    10     3     4   ar
    11     4     5   ar
    12     5     6   ar
    13     6     7   ar
    14     7     8    1
    15     8     9    2
    16     8    10   am
    17    10    19    1
    18    19    20    1
    19    20    21   ar
    20    21    22   ar
    21    22    23   ar
    22    23    24   ar
    23    24    25   ar
    24    25    26    1
    25    26    27   ar
    26    27    28   ar
    27    28    29   ar
    28    29    30   ar
    29    30    31   ar
    30    10     1    1
    31    25    20   ar
    32    31    26   ar
    33     7     2   ar
    34    11    14    1
@<TRIPOS>MOLECULE
*****
 31 34 0 0 0
SMALL
GASTEIGER

@<TRIPOS>ATOM
      1 C         141.7804  143.0558  163.5004 C.3     1  UNL1        0.1753
      2 C         141.6736  143.6331  162.1201 C.ar    1  UNL1        0.0089
      3 C         142.5697  143.5393  160.9208 C.ar    1  UNL1       -0.0021
      4 C         142.1945  144.2384  159.6478 C.ar    1  UNL1       -0.0003
      5 C         140.9233  145.0312  159.5741 C.ar    1  UNL1        0.0001
      6 C         140.0272  145.1249  160.7733 C.ar    1  UNL1        0.0043
      7 C         140.4024  144.4259  162.0463 C.ar    1  UNL1        0.0517
      8 C         139.7235  144.3385  163.3811 C.2     1  UNL1        0.2496
      9 O         138.4216  144.9845  163.7520 O.2     1  UNL1       -0.2699
     10 N         140.5752  143.4917  164.2797 N.am    1  UNL1       -0.2620
     11 N         142.8922  140.7193  163.7354 N.am    1  UNL1       -0.3059
     12 C         142.8965  142.1938  164.0116 C.2     1  UNL1        0.2448
     13 O         144.0168  142.8061  164.7989 O.2     1  UNL1       -0.2729
     14 H         142.1569  140.3174  163.2187 H       1  UNL1        0.1494
     15 C         144.8360  140.2189  163.0490 C.3     1  UNL1        0.0196
     16 C         144.0083  139.8574  164.2467 C.3     1  UNL1        0.0569
     17 C         143.1807  139.4959  165.4443 C.3     1  UNL1        0.0196
     18 C         145.1244  138.9954  164.7578 C.3     1  UNL1        0.0196
     19 C         140.2744  143.1423  165.7071 C.3     1  UNL1        0.1212
     20 C         139.6842  141.8049  166.0435 C.ar    1  UNL1       -0.0023
     21 C         138.7670  141.1239  165.0713 C.ar    1  UNL1       -0.0026
     22 C         138.1768  139.7866  165.4077 C.ar    1  UNL1       -0.0003
     23 C         138.5037  139.1303  166.7162 C.ar    1  UNL1       -0.0000
     24 C         139.4208  139.8112  167.6884 C.ar    1  UNL1       -0.0003
     25 C         140.0111  141.1486  167.3521 C.ar    1  UNL1       -0.0024
     26 C         140.9282  141.8295  168.3242 C.ar    1  UNL1       -0.0003
     27 C         140.3921  142.8794  169.2518 C.ar    1  UNL1       -0.0000
     28 C         141.3092  143.5604  170.2240 C.ar    1  UNL1       -0.0000
     29 C         142.7625  143.1914  170.2687 C.ar    1  UNL1       -0.0000
     30 C         143.2986  142.1415  169.3411 C.ar    1  UNL1       -0.0000
     31 C         142.3814  141.4606  168.3689 C.ar    1  UNL1       -0.0000
@<TRIPOS>BOND
     1    15    16    1
     2    16    17    1
     3    16    18    1
     4    16    11    1
     5    11    12   am
     6    12    13    2
     7    12     1    1
     8     1     2    1
     9     2     3   ar
    10     3     4   ar
    11     4     5   ar
    12     5     6   ar
    13     6     7   ar
    14     7     8    1
    15     8     9    2
    16     8    10   am
    17    10    19    1
    18    19    20    1
    19    20    21   ar
    20    21    22   ar
    21    22    23   ar
    22    23    24   ar
    23    24    25   ar
    24    25    26    1
    25    26    27   ar
    26    27    28   ar
    27    28    29   ar
    28    29    30   ar
    29    30    31   ar
    30    10     1    1
    31    25    20   ar
    32    31    26   ar
    33     7     2   ar
    34    11    14    1
@<TRIPOS>MOLECULE
*****
 31 34 0 0 0
SMALL
GASTEIGER

@<TRIPOS>ATOM
      1 C         141.4880  142.0923  163.9533 C.3     1  UNL1        0.1753
      2 C         142.9148  141.9734  163.5062 C.ar    1  UNL1        0.0089
      3 C         143.5261  141.6633  162.1720 C.ar    1  UNL1       -0.0021
      4 C         145.0178  141.6116  162.0243 C.ar    1  UNL1       -0.0003
      5 C         145.8984  141.8701  163.2108 C.ar    1  UNL1        0.0001
      6 C         145.2872  142.1803  164.5450 C.ar    1  UNL1        0.0043
      7 C         143.7954  142.2319  164.6927 C.ar    1  UNL1        0.0517
      8 C         142.9127  142.5105  165.8731 C.2     1  UNL1        0.2496
      9 O         143.3750  142.8209  167.2659 O.2     1  UNL1       -0.2699
     10 N         141.4866  142.4242  165.4161 N.am    1  UNL1       -0.2620
     11 N         139.7329  140.5353  162.8371 N.am    1  UNL1       -0.3059
     12 C         140.2753  141.9110  163.0893 C.2     1  UNL1        0.2448
     13 O         139.6050  143.1052  162.4774 O.2     1  UNL1       -0.2729
     14 H         140.1728  139.7515  163.2386 H       1  UNL1        0.1494
     15 C         137.6391  140.6930  163.1387 C.3     1  UNL1        0.0196
     16 C         138.5202  140.3540  161.9730 C.3     1  UNL1        0.0569
     17 C         139.4014  140.0151  160.8074 C.3     1  UNL1        0.0196
     18 C         137.3076  140.1728  161.1090 C.3     1  UNL1        0.0196
     19 C         140.2724  142.6331  166.2717 C.3     1  UNL1        0.1212
     20 C         140.2804  142.1924  167.7055 C.ar    1  UNL1       -0.0023
     21 C         140.3741  143.2109  168.8027 C.ar    1  UNL1       -0.0026
     22 C         140.3821  142.7703  170.2365 C.ar    1  UNL1       -0.0003
     23 C         140.2963  141.3110  170.5731 C.ar    1  UNL1       -0.0000
     24 C         140.2026  140.2925  169.4759 C.ar    1  UNL1       -0.0003
     25 C         140.1946  140.7332  168.0421 C.ar    1  UNL1       -0.0024
     26 C         140.1009  139.7146  166.9450 C.ar    1  UNL1       -0.0003
     27 C         141.3470  139.2200  166.2723 C.ar    1  UNL1       -0.0000
     28 C         141.2533  138.2015  165.1752 C.ar    1  UNL1       -0.0000
     29 C         139.9133  137.6775  164.7506 C.ar    1  UNL1       -0.0000
     30 C         138.6672  138.1721  165.4233 C.ar    1  UNL1       -0.0000
     31 C         138.7610  139.1907  166.5205 C.ar    1  UNL1       -0.0000
@<TRIPOS>BOND
     1    15    16    1
     2    16    17    1
     3    16    18    1
     4    16    11    1
     5    11    12   am
     6    12    13    2
     7    12     1    1
     8     1     2    1
     9     2     3   ar
    10     3     4   ar
    11     4     5   ar
    12     5     6   ar
    13     6     7   ar
    14     7     8    1
    15     8     9    2
    16     8    10   am
    17    10    19    1
    18    19    20    1
    19    20    21   ar
    20    21    22   ar
    21    22    23   ar
    22    23    24   ar
    23    24    25   ar
    24    25    26    1
    25    26    27   ar
    26    27    28   ar
    27    28    29   ar
    28    29    30   ar
    29    30    31   ar
    30    10     1    1
    31    25    20   ar
    32    31    26   ar
    33     7     2   ar
    34    11    14    1
@<TRIPOS>MOLECULE
*****
 31 34 0 0 0
SMALL
GASTEIGER

@<TRIPOS>ATOM
      1 C         141.1101  141.7782  166.5934 C.3     1  UNL1        0.1753
      2 C         141.0902  142.0902  168.0604 C.ar    1  UNL1        0.0089
      3 C         140.4826  143.2197  168.8382 C.ar    1  UNL1       -0.0021
      4 C         140.6294  143.2672  170.3302 C.ar    1  UNL1       -0.0003
      5 C         141.3839  142.1852  171.0444 C.ar    1  UNL1        0.0001
      6 C         141.9915  141.0557  170.2667 C.ar    1  UNL1        0.0043
      7 C         141.8447  141.0082  168.7747 C.ar    1  UNL1        0.0517
      8 C         142.3309  140.0276  167.7490 C.2     1  UNL1        0.2496
      9 O         143.1306  138.7886  168.0233 O.2     1  UNL1       -0.2699
     10 N         141.8769  140.5034  166.4009 N.am    1  UNL1       -0.2620
     11 N         138.9928  142.5278  165.2875 N.am    1  UNL1       -0.3059
     12 C         140.4747  142.5972  165.5092 C.2     1  UNL1        0.2448
     13 O         141.3212  143.4857  164.6466 O.2     1  UNL1       -0.2729
     14 H         138.4371  141.9447  165.8536 H       1  UNL1        0.1494
     15 C         138.3964  142.1613  163.2850 C.3     1  UNL1        0.0196
     16 C         138.3574  143.3468  164.2033 C.3     1  UNL1        0.0569
     17 C         138.3185  144.5322  165.1216 C.3     1  UNL1        0.0196
     18 C         137.7221  144.1658  163.1191 C.3     1  UNL1        0.0196
     19 C         142.1429  139.8239  165.0903 C.3     1  UNL1        0.1212
     20 C         141.0316  139.1162  164.3733 C.ar    1  UNL1       -0.0023
     21 C         140.0213  138.3255  165.1505 C.ar    1  UNL1       -0.0026
     22 C         138.9100  137.6178  164.4334 C.ar    1  UNL1       -0.0003
     23 C         138.8091  137.7008  162.9391 C.ar    1  UNL1       -0.0000
     24 C         139.8193  138.4915  162.1619 C.ar    1  UNL1       -0.0003
     25 C         140.9307  139.1992  162.8790 C.ar    1  UNL1       -0.0024
     26 C         141.9410  139.9899  162.1018 C.ar    1  UNL1       -0.0003
     27 C         143.2079  139.3359  161.6358 C.ar    1  UNL1       -0.0000
     28 C         144.2182  140.1266  160.8586 C.ar    1  UNL1       -0.0000
     29 C         143.9615  141.5713  160.5473 C.ar    1  UNL1       -0.0000
     30 C         142.6946  142.2254  161.0132 C.ar    1  UNL1       -0.0000
     31 C         141.6843  141.4346  161.7905 C.ar    1  UNL1       -0.0000
@<TRIPOS>BOND
     1    15    16    1
     2    16    17    1
     3    16    18    1
     4    16    11    1
     5    11    12   am
     6    12    13    2
     7    12     1    1
     8     1     2    1
     9     2     3   ar
    10     3     4   ar
    11     4     5   ar
    12     5     6   ar
    13     6     7   ar
    14     7     8    1
    15     8     9    2
    16     8    10   am
    17    10    19    1
    18    19    20    1
    19    20    21   ar
    20    21    22   ar
    21    22    23   ar
    22    23    24   ar
    23    24    25   ar
    24    25    26    1
    25    26    27   ar
    26    27    28   ar
    27    28    29   ar
    28    29    30   ar
    29    30    31   ar
    30    10     1    1
    31    25    20   ar
    32    31    26   ar
    33     7     2   ar
    34    11    14    1
@<TRIPOS>MOLECULE
*****
 31 34 0 0 0
SMALL
GASTEIGER

@<TRIPOS>ATOM
      1 C         141.0185  142.0733  165.5241 C.3     1  UNL1        0.1753
      2 C         142.0335  143.0362  164.9831 C.ar    1  UNL1        0.0089
      3 C         143.4754  143.2709  165.3233 C.ar    1  UNL1       -0.0021
      4 C         144.2547  144.3274  164.5977 C.ar    1  UNL1       -0.0003
      5 C         143.5922  145.1491  163.5320 C.ar    1  UNL1        0.0001
      6 C         142.1502  144.9144  163.1918 C.ar    1  UNL1        0.0043
      7 C         141.3709  143.8579  163.9174 C.ar    1  UNL1        0.0517
      8 C         139.9465  143.4028  163.7997 C.2     1  UNL1        0.2496
      9 O         138.9200  143.9540  162.8549 O.2     1  UNL1       -0.2699
     10 N         139.7286  142.2999  164.7927 N.am    1  UNL1       -0.2620
     11 N         141.1452  141.4657  168.0470 N.am    1  UNL1       -0.3059
     12 C         141.2523  141.0614  166.6064 C.2     1  UNL1        0.2448
     13 O         141.5934  139.6454  166.2484 O.2     1  UNL1       -0.2729
     14 H         140.9213  142.3952  168.2821 H       1  UNL1        0.1494
     15 C         142.8532  140.7230  169.0624 C.3     1  UNL1        0.0196
     16 C         141.3790  140.4539  169.1294 C.3     1  UNL1        0.0569
     17 C         139.9049  140.1848  169.1963 C.3     1  UNL1        0.0196
     18 C         141.6129  139.4421  170.2116 C.3     1  UNL1        0.0196
     19 C         138.4462  141.5544  165.0152 C.3     1  UNL1        0.1212
     20 C         138.4555  140.0574  165.1096 C.ar    1  UNL1       -0.0023
     21 C         137.9790  139.3818  166.3613 C.ar    1  UNL1       -0.0026
     22 C         137.9884  137.8848  166.4556 C.ar    1  UNL1       -0.0003
     23 C         138.4741  137.0634  165.2983 C.ar    1  UNL1       -0.0000
     24 C         138.9505  137.7389  164.0467 C.ar    1  UNL1       -0.0003
     25 C         138.9412  139.2360  163.9523 C.ar    1  UNL1       -0.0024
     26 C         139.4176  139.9115  162.7007 C.ar    1  UNL1       -0.0003
     27 C         138.4243  140.4248  161.7008 C.ar    1  UNL1       -0.0000
     28 C         138.9007  141.1004  160.4491 C.ar    1  UNL1       -0.0000
     29 C         140.3705  141.2626  160.1973 C.ar    1  UNL1       -0.0000
     30 C         141.3639  140.7493  161.1972 C.ar    1  UNL1       -0.0000
     31 C         140.8874  140.0738  162.4489 C.ar    1  UNL1       -0.0000
@<TRIPOS>BOND
     1    15    16    1
     2    16    17    1
     3    16    18    1
     4    16    11    1
     5    11    12   am
     6    12    13    2
     7    12     1    1
     8     1     2    1
     9     2     3   ar
    10     3     4   ar
    11     4     5   ar
    12     5     6   ar
    13     6     7   ar
    14     7     8    1
    15     8     9    2
    16     8    10   am
    17    10    19    1
    18    19    20    1
    19    20    21   ar
    20    21    22   ar
    21    22    23   ar
    22    23    24   ar
    23    24    25   ar
    24    25    26    1
    25    26    27   ar
    26    27    28   ar
    27    28    29   ar
    28    29    30   ar
    29    30    31   ar
    30    10     1    1
    31    25    20   ar
    32    31    26   ar
    33     7     2   ar
    34    11    14    1
@<TRIPOS>MOLECULE
*****
 31 34 0 0 0
SMALL
GASTEIGER

@<TRIPOS>ATOM
      1 C         141.4626  142.2897  163.9099 C.3     1  UNL1        0.1753
      2 C         140.1023  142.8512  163.6193 C.ar    1  UNL1        0.0089
      3 C         139.3264  142.9926  162.3434 C.ar    1  UNL1       -0.0021
      4 C         137.9584  143.6074  162.3618 C.ar    1  UNL1       -0.0003
      5 C         137.3663  144.0809  163.6561 C.ar    1  UNL1        0.0001
      6 C         138.1422  143.9396  164.9320 C.ar    1  UNL1        0.0043
      7 C         139.5102  143.3248  164.9136 C.ar    1  UNL1        0.0517
      8 C         140.5045  143.0558  166.0041 C.2     1  UNL1        0.2496
      9 O         140.3239  143.3713  167.4593 O.2     1  UNL1       -0.2699
     10 N         141.7112  142.4162  165.3837 N.am    1  UNL1       -0.2620
     11 N         142.2678  140.2700  162.4877 N.am    1  UNL1       -0.3059
     12 C         142.4082  141.7045  162.9033 C.2     1  UNL1        0.2448
     13 O         143.4943  142.5535  162.3123 O.2     1  UNL1       -0.2729
     14 H         141.5549  139.7126  162.8756 H       1  UNL1        0.1494
     15 C         142.2451  140.0099  160.3825 C.3     1  UNL1        0.0196
     16 C         143.2134  139.6847  161.4811 C.3     1  UNL1        0.0569
     17 C         144.1816  139.3596  162.5797 C.3     1  UNL1        0.0196
     18 C         144.1590  139.0995  160.4745 C.3     1  UNL1        0.0196
     19 C         142.9490  141.9796  166.1098 C.3     1  UNL1        0.1212
     20 C         142.8522  141.4670  167.5161 C.ar    1  UNL1       -0.0023
     21 C         143.4546  142.2518  168.6436 C.ar    1  UNL1       -0.0026
     22 C         143.3578  141.7392  170.0500 C.ar    1  UNL1       -0.0003
     23 C         142.6586  140.4418  170.3289 C.ar    1  UNL1       -0.0000
     24 C         142.0562  139.6569  169.2014 C.ar    1  UNL1       -0.0003
     25 C         142.1530  140.1695  167.7950 C.ar    1  UNL1       -0.0024
     26 C         141.5506  139.3847  166.6676 C.ar    1  UNL1       -0.0003
     27 C         140.0895  139.5199  166.3562 C.ar    1  UNL1       -0.0000
     28 C         139.4872  138.7351  165.2288 C.ar    1  UNL1       -0.0000
     29 C         140.3459  137.8150  164.4127 C.ar    1  UNL1       -0.0000
     30 C         141.8070  137.6797  164.7240 C.ar    1  UNL1       -0.0000
     31 C         142.4093  138.4646  165.8515 C.ar    1  UNL1       -0.0000
@<TRIPOS>BOND
     1    15    16    1
     2    16    17    1
     3    16    18    1
     4    16    11    1
     5    11    12   am
     6    12    13    2
     7    12     1    1
     8     1     2    1
     9     2     3   ar
    10     3     4   ar
    11     4     5   ar
    12     5     6   ar
    13     6     7   ar
    14     7     8    1
    15     8     9    2
    16     8    10   am
    17    10    19    1
    18    19    20    1
    19    20    21   ar
    20    21    22   ar
    21    22    23   ar
    22    23    24   ar
    23    24    25   ar
    24    25    26    1
    25    26    27   ar
    26    27    28   ar
    27    28    29   ar
    28    29    30   ar
    29    30    31   ar
    30    10     1    1
    31    25    20   ar
    32    31    26   ar
    33     7     2   ar
    34    11    14    1
@<TRIPOS>MOLECULE
*****
 31 34 0 0 0
SMALL
GASTEIGER

@<TRIPOS>ATOM
      1 C         141.3984  141.1130  166.3161 C.3     1  UNL1        0.1753
      2 C         141.7996  140.9505  167.7523 C.ar    1  UNL1        0.0089
      3 C         143.0159  141.3925  168.5108 C.ar    1  UNL1       -0.0021
      4 C         143.1431  141.0795  169.9722 C.ar    1  UNL1       -0.0003
      5 C         142.0541  140.3246  170.6752 C.ar    1  UNL1        0.0001
      6 C         140.8378  139.8827  169.9167 C.ar    1  UNL1        0.0043
      7 C         140.7106  140.1956  168.4553 C.ar    1  UNL1        0.0517
      8 C         139.6363  139.8916  167.4535 C.2     1  UNL1        0.2496
      9 O         138.3609  139.1506  167.7260 O.2     1  UNL1       -0.2699
     10 N         140.0614  140.4585  166.1314 N.am    1  UNL1       -0.2620
     11 N         142.2167  143.3066  165.1896 N.am    1  UNL1       -0.3059
     12 C         142.1945  141.8079  165.2515 C.2     1  UNL1        0.2448
     13 O         142.9683  141.0044  164.2488 O.2     1  UNL1       -0.2729
     14 H         141.7088  143.8340  165.8477 H       1  UNL1        0.1494
     15 C         141.7825  144.1052  163.2730 C.3     1  UNL1        0.0196
     16 C         143.0127  144.0015  164.1250 C.3     1  UNL1        0.0569
     17 C         144.2428  143.8978  164.9772 C.3     1  UNL1        0.0196
     18 C         143.8087  144.6964  163.0605 C.3     1  UNL1        0.0196
     19 C         139.2857  140.3840  164.8497 C.3     1  UNL1        0.1212
     20 C         138.8050  141.6423  164.1898 C.ar    1  UNL1       -0.0023
     21 C         138.2467  142.7591  165.0211 C.ar    1  UNL1       -0.0026
     22 C         137.7660  144.0174  164.3612 C.ar    1  UNL1       -0.0003
     23 C         137.8435  144.1590  162.8699 C.ar    1  UNL1       -0.0000
     24 C         138.4019  143.0423  162.0386 C.ar    1  UNL1       -0.0003
     25 C         138.8826  141.7839  162.6985 C.ar    1  UNL1       -0.0024
     26 C         139.4409  140.6672  161.8671 C.ar    1  UNL1       -0.0003
     27 C         140.8873  140.6787  161.4699 C.ar    1  UNL1       -0.0000
     28 C         141.4456  139.5620  160.6385 C.ar    1  UNL1       -0.0000
     29 C         140.5575  138.4337  160.2044 C.ar    1  UNL1       -0.0000
     30 C         139.1111  138.4222  160.6016 C.ar    1  UNL1       -0.0000
     31 C         138.5528  139.5390  161.4330 C.ar    1  UNL1       -0.0000
@<TRIPOS>BOND
     1    15    16    1
     2    16    17    1
     3    16    18    1
     4    16    11    1
     5    11    12   am
     6    12    13    2
     7    12     1    1
     8     1     2    1
     9     2     3   ar
    10     3     4   ar
    11     4     5   ar
    12     5     6   ar
    13     6     7   ar
    14     7     8    1
    15     8     9    2
    16     8    10   am
    17    10    19    1
    18    19    20    1
    19    20    21   ar
    20    21    22   ar
    21    22    23   ar
    22    23    24   ar
    23    24    25   ar
    24    25    26    1
    25    26    27   ar
    26    27    28   ar
    27    28    29   ar
    28    29    30   ar
    29    30    31   ar
    30    10     1    1
    31    25    20   ar
    32    31    26   ar
    33     7     2   ar
    34    11    14    1
@<TRIPOS>MOLECULE
*****
 31 34 0 0 0
SMALL
GASTEIGER

@<TRIPOS>ATOM
      1 C         141.9308  141.2903  164.3204 C.3     1  UNL1        0.1753
      2 C         142.2205  141.3052  165.7921 C.ar    1  UNL1        0.0089
      3 C         142.4102  142.4297  166.7664 C.ar    1  UNL1       -0.0021
      4 C         142.6948  142.1324  168.2088 C.ar    1  UNL1       -0.0003
      5 C         142.7896  140.7104  168.6769 C.ar    1  UNL1        0.0001
      6 C         142.6000  139.5859  167.7026 C.ar    1  UNL1        0.0043
      7 C         142.3154  139.8832  166.2602 C.ar    1  UNL1        0.0517
      8 C         142.0843  138.9896  165.0778 C.2     1  UNL1        0.2496
      9 O         142.0899  137.4897  165.0918 O.2     1  UNL1       -0.2699
     10 N         141.8466  139.8593  163.8789 N.am    1  UNL1       -0.2620
     11 N         140.6534  143.4728  163.7243 N.am    1  UNL1       -0.3059
     12 C         141.7560  142.4951  163.4440 C.2     1  UNL1        0.2448
     13 O         142.6837  142.7223  162.2875 O.2     1  UNL1       -0.2729
     14 H         140.0445  143.3237  164.4834 H       1  UNL1        0.1494
     15 C         139.3834  143.9753  162.1012 C.3     1  UNL1        0.0196
     16 C         140.4785  144.6776  162.8480 C.3     1  UNL1        0.0569
     17 C         141.5736  145.3797  163.5948 C.3     1  UNL1        0.0196
     18 C         140.3037  145.8823  161.9717 C.3     1  UNL1        0.0196
     19 C         141.5728  139.3817  162.4836 C.3     1  UNL1        0.1212
     20 C         140.4380  139.9699  161.6986 C.ar    1  UNL1       -0.0023
     21 C         140.6930  140.5742  160.3496 C.ar    1  UNL1       -0.0026
     22 C         139.5583  141.1624  159.5646 C.ar    1  UNL1       -0.0003
     23 C         138.1684  141.1465  160.1287 C.ar    1  UNL1       -0.0000
     24 C         137.9134  140.5423  161.4777 C.ar    1  UNL1       -0.0003
     25 C         139.0482  139.9540  162.2627 C.ar    1  UNL1       -0.0024
     26 C         138.7932  139.3498  163.6117 C.ar    1  UNL1       -0.0003
     27 C         138.4813  140.2339  164.7827 C.ar    1  UNL1       -0.0000
     28 C         138.2263  139.6297  166.1317 C.ar    1  UNL1       -0.0000
     29 C         138.2831  138.1413  166.3098 C.ar    1  UNL1       -0.0000
     30 C         138.5950  137.2573  165.1388 C.ar    1  UNL1       -0.0000
     31 C         138.8500  137.8615  163.7898 C.ar    1  UNL1       -0.0000
@<TRIPOS>BOND
     1    15    16    1
     2    16    17    1
     3    16    18    1
     4    16    11    1
     5    11    12   am
     6    12    13    2
     7    12     1    1
     8     1     2    1
     9     2     3   ar
    10     3     4   ar
    11     4     5   ar
    12     5     6   ar
    13     6     7   ar
    14     7     8    1
    15     8     9    2
    16     8    10   am
    17    10    19    1
    18    19    20    1
    19    20    21   ar
    20    21    22   ar
    21    22    23   ar
    22    23    24   ar
    23    24    25   ar
    24    25    26    1
    25    26    27   ar
    26    27    28   ar
    27    28    29   ar
    28    29    30   ar
    29    30    31   ar
    30    10     1    1
    31    25    20   ar
    32    31    26   ar
    33     7     2   ar
    34    11    14    1
@<TRIPOS>MOLECULE
*****
 31 34 0 0 0
SMALL
GASTEIGER

@<TRIPOS>ATOM
      1 C         141.3596  139.9813  165.0498 C.3     1  UNL1        0.1753
      2 C         140.1640  139.1945  165.4987 C.ar    1  UNL1        0.0089
      3 C         139.5798  137.8973  165.0233 C.ar    1  UNL1       -0.0021
      4 C         138.3500  137.3435  165.6794 C.ar    1  UNL1       -0.0003
      5 C         137.7042  138.0868  166.8110 C.ar    1  UNL1        0.0001
      6 C         138.2884  139.3840  167.2864 C.ar    1  UNL1        0.0043
      7 C         139.5182  139.9378  166.6303 C.ar    1  UNL1        0.0517
      8 C         140.3148  141.1840  166.8807 C.2     1  UNL1        0.2496
      9 O         140.0243  142.2212  167.9246 O.2     1  UNL1       -0.2699
     10 N         141.4528  141.2108  165.9039 N.am    1  UNL1       -0.2620
     11 N         141.7844  139.4699  162.5381 N.am    1  UNL1       -0.3059
     12 C         142.2974  139.6046  163.9413 C.2     1  UNL1        0.2448
     13 O         143.7480  139.3626  164.2359 O.2     1  UNL1       -0.2729
     14 H         140.8322  139.6287  162.3447 H       1  UNL1        0.1494
     15 C         142.9415  140.5448  161.1220 C.3     1  UNL1        0.0196
     16 C         142.7221  139.0931  161.4297 C.3     1  UNL1        0.0569
     17 C         142.5028  137.6415  161.7374 C.3     1  UNL1        0.0196
     18 C         143.6599  138.7165  160.3213 C.3     1  UNL1        0.0196
     19 C         142.5002  142.2796  165.7995 C.3     1  UNL1        0.1212
     20 C         142.9041  142.8050  164.4539 C.ar    1  UNL1       -0.0023
     21 C         144.3350  142.7162  164.0127 C.ar    1  UNL1       -0.0026
     22 C         144.7390  143.2415  162.6671 C.ar    1  UNL1       -0.0003
     23 C         143.7120  143.8558  161.7626 C.ar    1  UNL1       -0.0000
     24 C         142.2812  143.9446  162.2037 C.ar    1  UNL1       -0.0003
     25 C         141.8771  143.4192  163.5494 C.ar    1  UNL1       -0.0024
     26 C         140.4463  143.5080  163.9905 C.ar    1  UNL1       -0.0003
     27 C         139.4522  142.4870  163.5220 C.ar    1  UNL1       -0.0000
     28 C         138.0213  142.5758  163.9631 C.ar    1  UNL1       -0.0000
     29 C         137.5844  143.6857  164.8728 C.ar    1  UNL1       -0.0000
     30 C         138.5785  144.7066  165.3413 C.ar    1  UNL1       -0.0000
     31 C         140.0094  144.6178  164.9002 C.ar    1  UNL1       -0.0000
@<TRIPOS>BOND
     1    15    16    1
     2    16    17    1
     3    16    18    1
     4    16    11    1
     5    11    12   am
     6    12    13    2
     7    12     1    1
     8     1     2    1
     9     2     3   ar
    10     3     4   ar
    11     4     5   ar
    12     5     6   ar
    13     6     7   ar
    14     7     8    1
    15     8     9    2
    16     8    10   am
    17    10    19    1
    18    19    20    1
    19    20    21   ar
    20    21    22   ar
    21    22    23   ar
    22    23    24   ar
    23    24    25   ar
    24    25    26    1
    25    26    27   ar
    26    27    28   ar
    27    28    29   ar
    28    29    30   ar
    29    30    31   ar
    30    10     1    1
    31    25    20   ar
    32    31    26   ar
    33     7     2   ar
    34    11    14    1
