@<TRIPOS>MOLECULE
*****
 25 26 0 0 0
SMALL
GASTEIGER

@<TRIPOS>ATOM
      1 C         137.6671  141.4478  162.7100 C.ar    1  UNL1        0.1327
      2 N         137.5907  141.3495  161.2152 N.ar    1  UNL1       -0.1993
      3 C         137.9195  140.0558  160.5309 C.ar    1  UNL1        0.2148
      4 N         137.8430  139.9575  159.0360 N.pl3   1  UNL1       -0.3274
      5 N         138.3248  138.8605  161.3414 N.ar    1  UNL1       -0.2139
      6 C         138.4013  138.9588  162.8363 C.ar    1  UNL1        0.0868
      7 C         138.8066  137.7635  163.6467 C.ar    1  UNL1        0.0190
      8 C         138.8830  137.8618  165.1415 C.ar    1  UNL1       -0.0027
      9 C         138.5542  139.1555  165.8258 C.ar    1  UNL1       -0.0217
     10 C         138.6307  139.2538  167.3207 C.3     1  UNL1        0.0310
     11 C         138.1489  140.3508  165.0154 C.ar    1  UNL1        0.0000
     12 C         138.0724  140.2525  163.5206 C.ar    1  UNL1        0.0489
     13 H         137.5770  140.7420  158.5041 H       1  UNL1        0.1452
     14 H         138.0589  139.1084  158.5869 H       1  UNL1        0.1452
     15 N         137.3383  142.7415  163.3943 N.pl3   1  UNL1       -0.3195
     16 H         136.4415  142.8828  163.7752 H       1  UNL1        0.1481
     17 C         138.3758  143.8198  163.4984 C.3     1  UNL1        0.0729
     18 C         138.7277  144.3952  164.8382 C.3     1  UNL1        0.0196
     19 C         139.7028  143.6825  165.7278 C.3     1  UNL1        0.0017
     20 C         141.9954  143.4900  164.5208 C.3     1  UNL1        0.0000
     21 C         140.7879  142.8388  165.1271 C.3     1  UNL1        0.0001
     22 C         139.0614  144.3227  162.2626 C.3     1  UNL1        0.0512
     23 C         139.6244  145.7126  162.2303 C.3     1  UNL1        0.1389
     24 O         139.1003  146.7113  161.2414 O.3     1  UNL1       -0.3819
     25 H         139.3246  146.4244  160.3424 H       1  UNL1        0.2104
@<TRIPOS>BOND
     1    20    21    1
     2    21    19    1
     3    19    18    1
     4    17    18    1
     5    17    22    1
     6    22    23    1
     7    23    24    1
     8    17    15    1
     9    15     1    1
    10     1     2   ar
    11     2     3   ar
    12     3     4    1
    13     3     5   ar
    14     5     6   ar
    15     6     7   ar
    16     7     8   ar
    17     8     9   ar
    18     9    10    1
    19     9    11   ar
    20    11    12   ar
    21    12     1   ar
    22    12     6   ar
    23    24    25    1
    24    15    16    1
    25     4    13    1
    26     4    14    1
@<TRIPOS>MOLECULE
*****
 25 26 0 0 0
SMALL
GASTEIGER

@<TRIPOS>ATOM
      1 C         142.5089  141.8612  167.5510 C.ar    1  UNL1        0.1327
      2 N         143.2693  142.6726  168.5577 N.ar    1  UNL1       -0.1993
      3 C         142.7525  142.8040  169.9597 C.ar    1  UNL1        0.2148
      4 N         143.5129  143.6155  170.9664 N.pl3   1  UNL1       -0.3274
      5 N         141.4752  142.1241  170.3550 N.ar    1  UNL1       -0.2139
      6 C         140.7148  141.3127  169.3483 C.ar    1  UNL1        0.0868
      7 C         139.4375  140.6327  169.7436 C.ar    1  UNL1        0.0190
      8 C         138.6772  139.8213  168.7370 C.ar    1  UNL1       -0.0027
      9 C         139.1940  139.6899  167.3350 C.ar    1  UNL1       -0.0217
     10 C         138.4335  138.8785  166.3283 C.3     1  UNL1        0.0310
     11 C         140.4712  140.3699  166.9396 C.ar    1  UNL1        0.0000
     12 C         141.2316  141.1812  167.9463 C.ar    1  UNL1        0.0489
     13 H         144.3512  144.0617  170.7069 H       1  UNL1        0.1452
     14 H         143.1737  143.7017  171.8866 H       1  UNL1        0.1452
     15 N         143.0257  141.7298  166.1490 N.pl3   1  UNL1       -0.3195
     16 H         143.4197  140.8795  165.8473 H       1  UNL1        0.1481
     17 C         142.9423  142.8939  165.2067 C.3     1  UNL1        0.0729
     18 C         141.6343  143.5979  164.9984 C.3     1  UNL1        0.0196
     19 C         140.4590  142.8484  164.4444 C.3     1  UNL1        0.0017
     20 C         138.7806  144.6341  165.3070 C.3     1  UNL1        0.0000
     21 C         139.0661  143.2364  164.8438 C.3     1  UNL1        0.0001
     22 C         144.1669  143.3539  164.4727 C.3     1  UNL1        0.0512
     23 C         144.0584  143.8201  163.0511 C.3     1  UNL1        0.1389
     24 O         143.9930  145.2872  162.7459 O.3     1  UNL1       -0.3819
     25 H         143.1685  145.6548  163.1007 H       1  UNL1        0.2104
@<TRIPOS>BOND
     1    20    21    1
     2    21    19    1
     3    19    18    1
     4    17    18    1
     5    17    22    1
     6    22    23    1
     7    23    24    1
     8    17    15    1
     9    15     1    1
    10     1     2   ar
    11     2     3   ar
    12     3     4    1
    13     3     5   ar
    14     5     6   ar
    15     6     7   ar
    16     7     8   ar
    17     8     9   ar
    18     9    10    1
    19     9    11   ar
    20    11    12   ar
    21    12     1   ar
    22    12     6   ar
    23    24    25    1
    24    15    16    1
    25     4    13    1
    26     4    14    1
@<TRIPOS>MOLECULE
*****
 25 26 0 0 0
SMALL
GASTEIGER

@<TRIPOS>ATOM
      1 C         142.4600  141.3863  167.1810 C.ar    1  UNL1        0.1327
      2 N         143.4626  142.1255  168.0166 N.ar    1  UNL1       -0.1993
      3 C         143.2011  142.3524  169.4761 C.ar    1  UNL1        0.2148
      4 N         144.2039  143.0916  170.3116 N.pl3   1  UNL1       -0.3274
      5 N         141.9369  141.8402  170.1000 N.ar    1  UNL1       -0.2139
      6 C         140.9342  141.1009  169.2645 C.ar    1  UNL1        0.0868
      7 C         139.6700  140.5887  169.8884 C.ar    1  UNL1        0.0190
      8 C         138.6673  139.8495  169.0529 C.ar    1  UNL1       -0.0027
      9 C         138.9288  139.6226  167.5934 C.ar    1  UNL1       -0.0217
     10 C         137.9260  138.8834  166.7579 C.3     1  UNL1        0.0310
     11 C         140.1930  140.1348  166.9695 C.ar    1  UNL1        0.0000
     12 C         141.1957  140.8740  167.8050 C.ar    1  UNL1        0.0489
     13 H         145.0337  143.4278  169.9021 H       1  UNL1        0.1452
     14 H         144.0323  143.2406  171.2695 H       1  UNL1        0.1452
     15 N         142.7215  141.1593  165.7216 N.pl3   1  UNL1       -0.3195
     16 H         142.3435  141.7745  165.0523 H       1  UNL1        0.1481
     17 C         143.5589  139.9952  165.2818 C.3     1  UNL1        0.0729
     18 C         143.2512  138.6167  165.7869 C.3     1  UNL1        0.0196
     19 C         142.2710  137.7504  165.0529 C.3     1  UNL1        0.0017
     20 C         139.9736  137.7660  163.8398 C.3     1  UNL1        0.0000
     21 C         141.3348  138.3595  164.0516 C.3     1  UNL1        0.0001
     22 C         144.7040  140.2095  164.3369 C.3     1  UNL1        0.0512
     23 C         145.1093  141.6017  163.9531 C.3     1  UNL1        0.1389
     24 O         146.3715  141.8278  163.1749 O.3     1  UNL1       -0.3819
     25 H         147.1355  141.5805  163.7190 H       1  UNL1        0.2104
@<TRIPOS>BOND
     1    20    21    1
     2    21    19    1
     3    19    18    1
     4    17    18    1
     5    17    22    1
     6    22    23    1
     7    23    24    1
     8    17    15    1
     9    15     1    1
    10     1     2   ar
    11     2     3   ar
    12     3     4    1
    13     3     5   ar
    14     5     6   ar
    15     6     7   ar
    16     7     8   ar
    17     8     9   ar
    18     9    10    1
    19     9    11   ar
    20    11    12   ar
    21    12     1   ar
    22    12     6   ar
    23    24    25    1
    24    15    16    1
    25     4    13    1
    26     4    14    1
@<TRIPOS>MOLECULE
*****
 25 26 0 0 0
SMALL
GASTEIGER

@<TRIPOS>ATOM
      1 C         140.5383  145.1375  162.2345 C.ar    1  UNL1        0.1327
      2 N         140.0068  145.3549  160.8488 N.ar    1  UNL1       -0.1993
      3 C         140.8055  144.9076  159.6604 C.ar    1  UNL1        0.2148
      4 N         140.2739  145.1250  158.2747 N.pl3   1  UNL1       -0.3274
      5 N         142.1356  144.2430  159.8578 N.ar    1  UNL1       -0.2139
      6 C         142.6672  144.0256  161.2435 C.ar    1  UNL1        0.0868
      7 C         143.9973  143.3610  161.4409 C.ar    1  UNL1        0.0190
      8 C         144.5288  143.1436  162.8266 C.ar    1  UNL1       -0.0027
      9 C         143.7302  143.5908  164.0149 C.ar    1  UNL1       -0.0217
     10 C         144.2617  143.3734  165.4007 C.3     1  UNL1        0.0310
     11 C         142.4000  144.2555  163.8176 C.ar    1  UNL1        0.0000
     12 C         141.8685  144.4728  162.4319 C.ar    1  UNL1        0.0489
     13 H         139.4009  145.5612  158.1451 H       1  UNL1        0.1452
     14 H         140.7980  144.8315  157.4947 H       1  UNL1        0.1452
     15 N         139.7397  145.5847  163.4228 N.pl3   1  UNL1       -0.3195
     16 H         139.8679  146.4892  163.7899 H       1  UNL1        0.1481
     17 C         138.7458  144.6539  164.0518 C.3     1  UNL1        0.0729
     18 C         138.8394  144.3336  165.5142 C.3     1  UNL1        0.0196
     19 C         139.9060  143.4035  166.0115 C.3     1  UNL1        0.0017
     20 C         140.5929  141.2103  164.7998 C.3     1  UNL1        0.0000
     21 C         139.7579  141.9229  165.8221 C.3     1  UNL1        0.0001
     22 C         137.6582  144.0434  163.2184 C.3     1  UNL1        0.0512
     23 C         137.7818  142.6251  162.7462 C.3     1  UNL1        0.1389
     24 O         136.7512  141.6101  163.1430 O.3     1  UNL1       -0.3819
     25 H         136.7914  141.4661  164.1014 H       1  UNL1        0.2104
@<TRIPOS>BOND
     1    20    21    1
     2    21    19    1
     3    19    18    1
     4    17    18    1
     5    17    22    1
     6    22    23    1
     7    23    24    1
     8    17    15    1
     9    15     1    1
    10     1     2   ar
    11     2     3   ar
    12     3     4    1
    13     3     5   ar
    14     5     6   ar
    15     6     7   ar
    16     7     8   ar
    17     8     9   ar
    18     9    10    1
    19     9    11   ar
    20    11    12   ar
    21    12     1   ar
    22    12     6   ar
    23    24    25    1
    24    15    16    1
    25     4    13    1
    26     4    14    1
@<TRIPOS>MOLECULE
*****
 25 26 0 0 0
SMALL
GASTEIGER

@<TRIPOS>ATOM
      1 C         139.7308  143.3860  164.7268 C.ar    1  UNL1        0.1327
      2 N         138.5550  142.9985  163.8798 N.ar    1  UNL1       -0.1993
      3 C         137.9302  141.6441  164.0385 C.ar    1  UNL1        0.2148
      4 N         136.7544  141.2566  163.1914 N.pl3   1  UNL1       -0.3274
      5 N         138.4811  140.6772  165.0442 N.ar    1  UNL1       -0.2139
      6 C         139.6569  141.0646  165.8913 C.ar    1  UNL1        0.0868
      7 C         140.2078  140.0977  166.8970 C.ar    1  UNL1        0.0190
      8 C         141.3836  140.4851  167.7440 C.ar    1  UNL1       -0.0027
      9 C         142.0084  141.8396  167.5853 C.ar    1  UNL1       -0.0217
     10 C         143.1842  142.2270  168.4323 C.3     1  UNL1        0.0310
     11 C         141.4575  142.8065  166.5796 C.ar    1  UNL1        0.0000
     12 C         140.2818  142.4190  165.7326 C.ar    1  UNL1        0.0489
     13 H         136.3928  141.8913  162.5313 H       1  UNL1        0.1452
     14 H         136.3443  140.3677  163.2956 H       1  UNL1        0.1452
     15 N         140.3556  144.7404  164.5681 N.pl3   1  UNL1       -0.3195
     16 H         140.0732  145.4838  165.1484 H       1  UNL1        0.1481
     17 C         141.4106  144.9621  163.5252 C.3     1  UNL1        0.0729
     18 C         142.8606  144.9402  163.9087 C.3     1  UNL1        0.0196
     19 C         143.7326  143.7973  163.4800 C.3     1  UNL1        0.0017
     20 C         145.4902  141.9756  164.0649 C.3     1  UNL1        0.0000
     21 C         144.5058  143.0191  164.5030 C.3     1  UNL1        0.0001
     22 C         141.0157  145.2057  162.0987 C.3     1  UNL1        0.0512
     23 C         139.7838  146.0027  161.7872 C.3     1  UNL1        0.1389
     24 O         138.4312  145.4649  162.1495 O.3     1  UNL1       -0.3819
     25 H         138.2478  144.6705  161.6240 H       1  UNL1        0.2104
@<TRIPOS>BOND
     1    20    21    1
     2    21    19    1
     3    19    18    1
     4    17    18    1
     5    17    22    1
     6    22    23    1
     7    23    24    1
     8    17    15    1
     9    15     1    1
    10     1     2   ar
    11     2     3   ar
    12     3     4    1
    13     3     5   ar
    14     5     6   ar
    15     6     7   ar
    16     7     8   ar
    17     8     9   ar
    18     9    10    1
    19     9    11   ar
    20    11    12   ar
    21    12     1   ar
    22    12     6   ar
    23    24    25    1
    24    15    16    1
    25     4    13    1
    26     4    14    1
@<TRIPOS>MOLECULE
*****
 25 26 0 0 0
SMALL
GASTEIGER

@<TRIPOS>ATOM
      1 C         141.4764  142.4863  164.4678 C.ar    1  UNL1        0.1327
      2 N         141.4669  143.6151  163.4801 N.ar    1  UNL1       -0.1993
      3 C         142.5617  143.7293  162.4611 C.ar    1  UNL1        0.2148
      4 N         142.5522  144.8582  161.4734 N.pl3   1  UNL1       -0.3274
      5 N         143.6660  142.7147  162.4298 N.ar    1  UNL1       -0.2139
      6 C         143.6755  141.5858  163.4176 C.ar    1  UNL1        0.0868
      7 C         144.7798  140.5711  163.3863 C.ar    1  UNL1        0.0190
      8 C         144.7892  139.4423  164.3741 C.ar    1  UNL1       -0.0027
      9 C         143.6944  139.3282  165.3931 C.ar    1  UNL1       -0.0217
     10 C         143.7040  138.1993  166.3808 C.3     1  UNL1        0.0310
     11 C         142.5902  140.3428  165.4243 C.ar    1  UNL1        0.0000
     12 C         142.5807  141.4716  164.4366 C.ar    1  UNL1        0.0489
     13 H         141.8274  145.5242  161.4939 H       1  UNL1        0.1452
     14 H         143.2707  144.9331  160.8045 H       1  UNL1        0.1452
     15 N         140.3816  142.3722  165.4868 N.pl3   1  UNL1       -0.3195
     16 H         140.5584  142.6034  166.4273 H       1  UNL1        0.1481
     17 C         139.0174  141.9056  165.0729 C.3     1  UNL1        0.0729
     18 C         138.6033  140.4854  165.3206 C.3     1  UNL1        0.0196
     19 C         139.1195  139.3886  164.4370 C.3     1  UNL1        0.0017
     20 C         140.6810  137.3136  164.3607 C.3     1  UNL1        0.0000
     21 C         139.6026  138.1035  165.0411 C.3     1  UNL1        0.0001
     22 C         138.0673  142.8594  164.4113 C.3     1  UNL1        0.0512
     23 C         138.0114  144.2911  164.8551 C.3     1  UNL1        0.1389
     24 O         139.2302  145.1585  164.7452 O.3     1  UNL1       -0.3819
     25 H         139.9167  144.8290  165.3460 H       1  UNL1        0.2104
@<TRIPOS>BOND
     1    20    21    1
     2    21    19    1
     3    19    18    1
     4    17    18    1
     5    17    22    1
     6    22    23    1
     7    23    24    1
     8    17    15    1
     9    15     1    1
    10     1     2   ar
    11     2     3   ar
    12     3     4    1
    13     3     5   ar
    14     5     6   ar
    15     6     7   ar
    16     7     8   ar
    17     8     9   ar
    18     9    10    1
    19     9    11   ar
    20    11    12   ar
    21    12     1   ar
    22    12     6   ar
    23    24    25    1
    24    15    16    1
    25     4    13    1
    26     4    14    1
@<TRIPOS>MOLECULE
*****
 25 26 0 0 0
SMALL
GASTEIGER

@<TRIPOS>ATOM
      1 C         139.5617  140.3510  167.1018 C.ar    1  UNL1        0.1327
      2 N         139.1740  139.8123  168.4469 N.ar    1  UNL1       -0.1993
      3 C         140.0693  140.0337  169.6299 C.ar    1  UNL1        0.2148
      4 N         139.6816  139.4949  170.9751 N.pl3   1  UNL1       -0.3274
      5 N         141.3522  140.7938  169.4678 N.ar    1  UNL1       -0.2139
      6 C         141.7399  141.3326  168.1226 C.ar    1  UNL1        0.0868
      7 C         143.0228  142.0927  167.9604 C.ar    1  UNL1        0.0190
      8 C         143.4104  142.6314  166.6153 C.ar    1  UNL1       -0.0027
      9 C         142.5152  142.4100  165.4323 C.ar    1  UNL1       -0.0217
     10 C         142.9029  142.9488  164.0871 C.3     1  UNL1        0.0310
     11 C         141.2323  141.6499  165.5944 C.ar    1  UNL1        0.0000
     12 C         140.8446  141.1112  166.9396 C.ar    1  UNL1        0.0489
     13 H         138.8396  138.9960  171.0816 H       1  UNL1        0.1452
     14 H         140.2692  139.6402  171.7516 H       1  UNL1        0.1452
     15 N         138.6664  140.1296  165.9188 N.pl3   1  UNL1       -0.3195
     16 H         137.7900  140.5758  165.8744 H       1  UNL1        0.1481
     17 C         139.1065  139.2283  164.8035 C.3     1  UNL1        0.0729
     18 C         139.5643  137.8318  165.1039 C.3     1  UNL1        0.0196
     19 C         140.9189  137.3730  164.6514 C.3     1  UNL1        0.0017
     20 C         143.0724  138.7558  164.2039 C.3     1  UNL1        0.0000
     21 C         142.1519  138.0585  165.1612 C.3     1  UNL1        0.0001
     22 C         139.0887  139.7235  163.3876 C.3     1  UNL1        0.0512
     23 C         137.7991  140.1703  162.7655 C.3     1  UNL1        0.1389
     24 O         136.9005  141.1193  163.5015 O.3     1  UNL1       -0.3819
     25 H         136.5551  140.6859  164.2976 H       1  UNL1        0.2104
@<TRIPOS>BOND
     1    20    21    1
     2    21    19    1
     3    19    18    1
     4    17    18    1
     5    17    22    1
     6    22    23    1
     7    23    24    1
     8    17    15    1
     9    15     1    1
    10     1     2   ar
    11     2     3   ar
    12     3     4    1
    13     3     5   ar
    14     5     6   ar
    15     6     7   ar
    16     7     8   ar
    17     8     9   ar
    18     9    10    1
    19     9    11   ar
    20    11    12   ar
    21    12     1   ar
    22    12     6   ar
    23    24    25    1
    24    15    16    1
    25     4    13    1
    26     4    14    1
@<TRIPOS>MOLECULE
*****
 25 26 0 0 0
SMALL
GASTEIGER

@<TRIPOS>ATOM
      1 C         139.3343  139.5560  165.1930 C.ar    1  UNL1        0.1327
      2 N         138.2018  138.6987  165.6750 N.ar    1  UNL1       -0.1993
      3 C         137.9199  138.5847  167.1439 C.ar    1  UNL1        0.2148
      4 N         136.7873  137.7273  167.6258 N.pl3   1  UNL1       -0.3274
      5 N         138.7705  139.3279  168.1307 N.ar    1  UNL1       -0.2139
      6 C         139.9032  140.1852  167.6488 C.ar    1  UNL1        0.0868
      7 C         140.7538  140.9284  168.6356 C.ar    1  UNL1        0.0190
      8 C         141.8864  141.7857  168.1536 C.ar    1  UNL1       -0.0027
      9 C         142.1683  141.8998  166.6848 C.ar    1  UNL1       -0.0217
     10 C         143.3009  142.7571  166.2028 C.3     1  UNL1        0.0310
     11 C         141.3176  141.1565  165.6979 C.ar    1  UNL1        0.0000
     12 C         140.1851  140.2993  166.1799 C.ar    1  UNL1        0.0489
     13 H         136.2289  137.2395  166.9781 H       1  UNL1        0.1452
     14 H         136.6022  137.6525  168.5899 H       1  UNL1        0.1452
     15 N         139.6162  139.6700  163.7242 N.pl3   1  UNL1       -0.3195
     16 H         140.4128  139.2369  163.3407 H       1  UNL1        0.1481
     17 C         138.6844  140.4440  162.8395 C.3     1  UNL1        0.0729
     18 C         138.6033  141.9370  162.9595 C.3     1  UNL1        0.0196
     19 C         137.6120  142.5614  163.8964 C.3     1  UNL1        0.0017
     20 C         139.2909  144.1075  165.1378 C.3     1  UNL1        0.0000
     21 C         137.9276  143.8695  164.5592 C.3     1  UNL1        0.0001
     22 C         137.8336  139.7250  161.8349 C.3     1  UNL1        0.0512
     23 C         138.0415  138.2603  161.5873 C.3     1  UNL1        0.1389
     24 O         138.3593  137.3439  162.7315 O.3     1  UNL1       -0.3819
     25 H         139.2286  137.5719  163.0965 H       1  UNL1        0.2104
@<TRIPOS>BOND
     1    20    21    1
     2    21    19    1
     3    19    18    1
     4    17    18    1
     5    17    22    1
     6    22    23    1
     7    23    24    1
     8    17    15    1
     9    15     1    1
    10     1     2   ar
    11     2     3   ar
    12     3     4    1
    13     3     5   ar
    14     5     6   ar
    15     6     7   ar
    16     7     8   ar
    17     8     9   ar
    18     9    10    1
    19     9    11   ar
    20    11    12   ar
    21    12     1   ar
    22    12     6   ar
    23    24    25    1
    24    15    16    1
    25     4    13    1
    26     4    14    1
@<TRIPOS>MOLECULE
*****
 25 26 0 0 0
SMALL
GASTEIGER

@<TRIPOS>ATOM
      1 C         140.1621  141.3208  165.2740 C.ar    1  UNL1        0.1327
      2 N         139.7250  140.1156  164.4953 N.ar    1  UNL1       -0.1993
      3 C         139.1427  138.9319  165.2094 C.ar    1  UNL1        0.2148
      4 N         138.7056  137.7267  164.4306 N.pl3   1  UNL1       -0.3274
      5 N         138.9976  138.9535  166.7021 N.ar    1  UNL1       -0.2139
      6 C         139.4347  140.1587  167.4809 C.ar    1  UNL1        0.0868
      7 C         139.2895  140.1802  168.9737 C.ar    1  UNL1        0.0190
      8 C         139.7267  141.3854  169.7524 C.ar    1  UNL1       -0.0027
      9 C         140.3089  142.5691  169.0383 C.ar    1  UNL1       -0.0217
     10 C         140.7461  143.7743  169.8171 C.3     1  UNL1        0.0310
     11 C         140.4541  142.5475  167.5455 C.ar    1  UNL1        0.0000
     12 C         140.0170  141.3424  166.7668 C.ar    1  UNL1        0.0489
     13 H         138.8009  137.7126  163.4508 H       1  UNL1        0.1452
     14 H         138.3234  136.9498  164.8992 H       1  UNL1        0.1452
     15 N         140.7444  142.5044  164.5599 N.pl3   1  UNL1       -0.3195
     16 H         141.7212  142.6119  164.5005 H       1  UNL1        0.1481
     17 C         139.8384  143.5244  163.9364 C.3     1  UNL1        0.0729
     18 C         140.4207  144.7009  163.2106 C.3     1  UNL1        0.0196
     19 C         141.6052  145.4229  163.7814 C.3     1  UNL1        0.0017
     20 C         143.9138  144.3578  164.3162 C.3     1  UNL1        0.0000
     21 C         142.9920  145.0448  163.3527 C.3     1  UNL1        0.0001
     22 C         138.3500  143.3678  164.0386 C.3     1  UNL1        0.0512
     23 C         137.5939  142.6615  162.9526 C.3     1  UNL1        0.1389
     24 O         136.8461  141.3979  163.2593 O.3     1  UNL1       -0.3819
     25 H         137.4755  140.6999  163.4993 H       1  UNL1        0.2104
@<TRIPOS>BOND
     1    20    21    1
     2    21    19    1
     3    19    18    1
     4    17    18    1
     5    17    22    1
     6    22    23    1
     7    23    24    1
     8    17    15    1
     9    15     1    1
    10     1     2   ar
    11     2     3   ar
    12     3     4    1
    13     3     5   ar
    14     5     6   ar
    15     6     7   ar
    16     7     8   ar
    17     8     9   ar
    18     9    10    1
    19     9    11   ar
    20    11    12   ar
    21    12     1   ar
    22    12     6   ar
    23    24    25    1
    24    15    16    1
    25     4    13    1
    26     4    14    1
