@<TRIPOS>MOLECULE
*****
 29 34 0 0 0
SMALL
GASTEIGER

@<TRIPOS>ATOM
      1 N         138.6559  145.2844  165.7921 N.pl3   1  UNL1       -0.3133
      2 C         138.4284  144.0695  164.9423 C.2     1  UNL1        0.2770
      3 N         139.0280  142.7127  165.1651 N.2     1  UNL1       -0.2202
      4 C         138.5316  141.8028  164.0809 C.3     1  UNL1        0.1580
      5 C         137.6251  142.5972  163.1880 C.3     1  UNL1        0.2351
      6 O         137.5613  143.9981  163.7204 O.2     1  UNL1       -0.4478
      7 C         139.4568  141.1398  165.0578 C.ar    1  UNL1        0.0357
      8 C         140.0333  141.9265  166.1974 C.ar    1  UNL1        0.0007
      9 C         140.9586  141.2635  167.1742 C.ar    1  UNL1        0.0029
     10 C         141.3074  139.8137  167.0115 C.ar    1  UNL1        0.0032
     11 C         140.7308  139.0269  165.8719 C.ar    1  UNL1        0.0366
     12 C         139.8055  139.6900  164.8951 C.ar    1  UNL1        0.1360
     13 O         139.2290  138.9033  163.7555 O.3     1  UNL1       -0.4826
     14 C         138.3038  139.5663  162.7786 C.3     1  UNL1        0.1395
     15 C         138.4162  138.1473  162.3052 C.3     1  UNL1        0.0404
     16 C         137.4884  138.4536  161.1670 C.3     1  UNL1        0.0072
     17 C         137.3760  139.8725  161.6404 C.3     1  UNL1        0.0404
     18 C         137.9550  141.0160  162.9414 C.3     1  UNL1        0.1141
     19 C         138.2132  140.8310  163.2139 C.3     1  UNL1        0.1501
     20 O         137.9419  141.0255  162.9274 O.3     1  UNL1       -0.3532
     21 C         138.2132  140.8310  163.2139 C.3     1  UNL1        0.1501
     22 H         139.2457  145.2316  166.5785 H       1  UNL1        0.1466
     23 H         138.2153  146.1346  165.5635 H       1  UNL1        0.1466
     24 C         141.5351  142.0503  168.3138 C.ar    1  UNL1        0.0384
     25 C         140.6522  142.9504  169.1263 C.ar    1  UNL1        0.1022
     26 N         141.2287  143.7371  170.2658 N.ar    1  UNL1       -0.2224
     27 C         142.6882  143.6238  170.5930 C.ar    1  UNL1        0.1989
     28 N         143.5712  142.7236  169.7805 N.ar    1  UNL1       -0.2224
     29 C         142.9947  141.9369  168.6409 C.ar    1  UNL1        0.1022
@<TRIPOS>BOND
     1     1     2    1
     2     2     3    2
     3     3     4    1
     4     4     5    1
     5     5     6    1
     6     4     7    1
     7     7     8   ar
     8     8     9   ar
     9     9    24    1
    10    24    25   ar
    11    25    26   ar
    12    26    27   ar
    13    27    28   ar
    14    28    29   ar
    15     9    10   ar
    16    10    11   ar
    17    11    12   ar
    18    12    13    1
    19    13    14    1
    20    14    15    1
    21    15    16    1
    22    16    17    1
    23    14    18    1
    24    18    19    1
    25    19    20    1
    26    20    21    1
    27     6     2    1
    28    12     7   ar
    29    17    14    1
    30    21    18    1
    31    18     4    1
    32    29    24   ar
    33     1    22    1
    34     1    23    1
@<TRIPOS>MOLECULE
*****
 29 34 0 0 0
SMALL
GASTEIGER

@<TRIPOS>ATOM
      1 N         137.6861  138.3897  166.7387 N.pl3   1  UNL1       -0.3133
      2 C         138.7751  138.3225  165.7094 C.2     1  UNL1        0.2770
      3 N         140.0165  139.1641  165.6829 N.2     1  UNL1       -0.2202
      4 C         140.8225  138.7637  164.4830 C.3     1  UNL1        0.1580
      5 C         140.0792  137.6746  163.7678 C.3     1  UNL1        0.2351
      6 O         138.8138  137.4020  164.5257 O.2     1  UNL1       -0.4478
      7 C         141.4478  139.8538  165.3019 C.ar    1  UNL1        0.0357
      8 C         140.7553  140.3582  166.5331 C.ar    1  UNL1        0.0007
      9 C         141.3807  141.4483  167.3520 C.ar    1  UNL1        0.0029
     10 C         142.6986  142.0341  166.9396 C.ar    1  UNL1        0.0032
     11 C         143.3911  141.5297  165.7083 C.ar    1  UNL1        0.0366
     12 C         142.7657  140.4396  164.8895 C.ar    1  UNL1        0.1360
     13 O         143.4582  139.9352  163.6582 O.3     1  UNL1       -0.4826
     14 C         142.8329  138.8451  162.8393 C.3     1  UNL1        0.1395
     15 C         144.1159  139.1727  162.1346 C.3     1  UNL1        0.0404
     16 C         143.8123  138.1318  161.0979 C.3     1  UNL1        0.0072
     17 C         142.5292  137.8043  161.8027 C.3     1  UNL1        0.0404
     18 C         141.5150  138.2594  163.2517 C.3     1  UNL1        0.1141
     19 C         141.6895  138.5635  163.4801 C.3     1  UNL1        0.1501
     20 O         141.5061  138.2438  163.2400 O.3     1  UNL1       -0.3532
     21 C         141.6895  138.5635  163.4801 C.3     1  UNL1        0.1501
     22 H         137.7512  139.0308  167.4831 H       1  UNL1        0.1466
     23 H         136.9063  137.7927  166.6700 H       1  UNL1        0.1466
     24 C         140.6881  141.9526  168.5833 C.ar    1  UNL1        0.0384
     25 C         140.8793  143.3741  169.0222 C.ar    1  UNL1        0.1022
     26 N         140.1868  143.8785  170.2535 N.ar    1  UNL1       -0.2224
     27 C         139.3031  142.9613  171.0459 C.ar    1  UNL1        0.1989
     28 N         139.1119  141.5397  170.6069 N.ar    1  UNL1       -0.2224
     29 C         139.8044  141.0354  169.3757 C.ar    1  UNL1        0.1022
@<TRIPOS>BOND
     1     1     2    1
     2     2     3    2
     3     3     4    1
     4     4     5    1
     5     5     6    1
     6     4     7    1
     7     7     8   ar
     8     8     9   ar
     9     9    24    1
    10    24    25   ar
    11    25    26   ar
    12    26    27   ar
    13    27    28   ar
    14    28    29   ar
    15     9    10   ar
    16    10    11   ar
    17    11    12   ar
    18    12    13    1
    19    13    14    1
    20    14    15    1
    21    15    16    1
    22    16    17    1
    23    14    18    1
    24    18    19    1
    25    19    20    1
    26    20    21    1
    27     6     2    1
    28    12     7   ar
    29    17    14    1
    30    21    18    1
    31    18     4    1
    32    29    24   ar
    33     1    22    1
    34     1    23    1
@<TRIPOS>MOLECULE
*****
 29 34 0 0 0
SMALL
GASTEIGER

@<TRIPOS>ATOM
      1 N         137.3615  140.6089  163.6480 N.pl3   1  UNL1       -0.3133
      2 C         138.2356  140.4470  164.8562 C.2     1  UNL1        0.2770
      3 N         139.5546  141.1232  165.0871 N.2     1  UNL1       -0.2202
      4 C         140.0784  140.6747  166.4191 C.3     1  UNL1        0.1580
      5 C         139.0832  139.7214  167.0115 C.3     1  UNL1        0.2351
      6 O         137.9443  139.5807  166.0455 O.2     1  UNL1       -0.4478
      7 C         140.9767  141.6396  165.7038 C.ar    1  UNL1        0.0357
      8 C         140.5830  142.1752  164.3591 C.ar    1  UNL1        0.0007
      9 C         141.4813  143.1402  163.6437 C.ar    1  UNL1        0.0029
     10 C         142.7735  143.5696  164.2730 C.ar    1  UNL1        0.0032
     11 C         143.1673  143.0340  165.6176 C.ar    1  UNL1        0.0366
     12 C         142.2689  142.0690  166.3330 C.ar    1  UNL1        0.1360
     13 O         142.6626  141.5334  167.6777 O.3     1  UNL1       -0.4826
     14 C         141.7643  140.5685  168.3931 C.3     1  UNL1        0.1395
     15 C         142.9371  140.7590  169.3088 C.3     1  UNL1        0.0404
     16 C         142.3212  139.8110  170.2948 C.3     1  UNL1        0.0072
     17 C         141.1485  139.6205  169.3791 C.3     1  UNL1        0.0404
     18 C         140.4722  140.1391  167.7638 C.3     1  UNL1        0.1141
     19 C         140.7228  140.4083  167.5642 C.3     1  UNL1        0.1501
     20 O         140.4594  140.1254  167.7740 O.3     1  UNL1       -0.3532
     21 C         140.7228  140.4083  167.5642 C.3     1  UNL1        0.1501
     22 H         137.6403  141.2038  162.9148 H       1  UNL1        0.1466
     23 H         136.5089  140.1201  163.5882 H       1  UNL1        0.1466
     24 C         141.0875  143.6758  162.2991 C.ar    1  UNL1        0.0384
     25 C         142.1037  144.3694  161.4411 C.ar    1  UNL1        0.1022
     26 N         141.7099  144.9050  160.0965 N.ar    1  UNL1       -0.2224
     27 C         140.2999  144.7469  159.6098 C.ar    1  UNL1        0.1989
     28 N         139.2836  144.0533  160.4678 N.ar    1  UNL1       -0.2224
     29 C         139.6774  143.5177  161.8124 C.ar    1  UNL1        0.1022
@<TRIPOS>BOND
     1     1     2    1
     2     2     3    2
     3     3     4    1
     4     4     5    1
     5     5     6    1
     6     4     7    1
     7     7     8   ar
     8     8     9   ar
     9     9    24    1
    10    24    25   ar
    11    25    26   ar
    12    26    27   ar
    13    27    28   ar
    14    28    29   ar
    15     9    10   ar
    16    10    11   ar
    17    11    12   ar
    18    12    13    1
    19    13    14    1
    20    14    15    1
    21    15    16    1
    22    16    17    1
    23    14    18    1
    24    18    19    1
    25    19    20    1
    26    20    21    1
    27     6     2    1
    28    12     7   ar
    29    17    14    1
    30    21    18    1
    31    18     4    1
    32    29    24   ar
    33     1    22    1
    34     1    23    1
@<TRIPOS>MOLECULE
*****
 29 34 0 0 0
SMALL
GASTEIGER

@<TRIPOS>ATOM
      1 N         144.2256  140.4997  162.0724 N.pl3   1  UNL1       -0.3133
      2 C         143.8197  140.2717  163.4983 C.2     1  UNL1        0.2770
      3 N         142.8048  141.0676  164.2642 N.2     1  UNL1       -0.2202
      4 C         142.7153  140.4956  165.6479 C.3     1  UNL1        0.1580
      5 C         143.6750  139.3462  165.7372 C.3     1  UNL1        0.2351
      6 O         144.3575  139.2078  164.4087 O.2     1  UNL1       -0.4478
      7 C         141.8034  141.6625  165.4100 C.ar    1  UNL1        0.0357
      8 C         141.7838  142.3383  164.0710 C.ar    1  UNL1        0.0007
      9 C         140.8719  143.5053  163.8331 C.ar    1  UNL1        0.0029
     10 C         139.9795  143.9964  164.9342 C.ar    1  UNL1        0.0032
     11 C         139.9990  143.3206  166.2732 C.ar    1  UNL1        0.0366
     12 C         140.9110  142.1537  166.5111 C.ar    1  UNL1        0.1360
     13 O         140.9306  141.4779  167.8501 O.3     1  UNL1       -0.4826
     14 C         141.8425  140.3109  168.0880 C.3     1  UNL1        0.1395
     15 C         141.1196  140.5100  169.3872 C.3     1  UNL1        0.0404
     16 C         141.8701  139.3552  169.9817 C.3     1  UNL1        0.0072
     17 C         142.5929  139.1561  168.6824 C.3     1  UNL1        0.0404
     18 C         142.7349  139.8198  166.9869 C.3     1  UNL1        0.1141
     19 C         142.4804  140.1454  166.9206 C.3     1  UNL1        0.1501
     20 O         142.7478  139.8032  166.9903 O.3     1  UNL1       -0.3532
     21 C         142.4804  140.1454  166.9206 C.3     1  UNL1        0.1501
     22 H         143.8133  141.2279  161.5537 H       1  UNL1        0.1466
     23 H         144.9042  139.9212  161.6552 H       1  UNL1        0.1466
     24 C         140.8524  144.1811  162.4941 C.ar    1  UNL1        0.0384
     25 C         142.0045  144.0075  161.5495 C.ar    1  UNL1        0.1022
     26 N         141.9850  144.6833  160.2105 N.ar    1  UNL1       -0.2224
     27 C         140.8133  145.5327  159.8161 C.ar    1  UNL1        0.1989
     28 N         139.6610  145.7063  160.7607 N.ar    1  UNL1       -0.2224
     29 C         139.6806  145.0305  162.0997 C.ar    1  UNL1        0.1022
@<TRIPOS>BOND
     1     1     2    1
     2     2     3    2
     3     3     4    1
     4     4     5    1
     5     5     6    1
     6     4     7    1
     7     7     8   ar
     8     8     9   ar
     9     9    24    1
    10    24    25   ar
    11    25    26   ar
    12    26    27   ar
    13    27    28   ar
    14    28    29   ar
    15     9    10   ar
    16    10    11   ar
    17    11    12   ar
    18    12    13    1
    19    13    14    1
    20    14    15    1
    21    15    16    1
    22    16    17    1
    23    14    18    1
    24    18    19    1
    25    19    20    1
    26    20    21    1
    27     6     2    1
    28    12     7   ar
    29    17    14    1
    30    21    18    1
    31    18     4    1
    32    29    24   ar
    33     1    22    1
    34     1    23    1
@<TRIPOS>MOLECULE
*****
 29 34 0 0 0
SMALL
GASTEIGER

@<TRIPOS>ATOM
      1 N         138.4741  137.5111  163.8646 N.pl3   1  UNL1       -0.3133
      2 C         138.7767  138.3023  165.1026 C.2     1  UNL1        0.2770
      3 N         139.9666  139.1915  165.3118 N.2     1  UNL1       -0.2202
      4 C         139.8679  139.7819  166.6871 C.3     1  UNL1        0.1580
      5 C         138.6171  139.2576  167.3279 C.3     1  UNL1        0.2351
      6 O         137.9427  138.3432  166.3486 O.2     1  UNL1       -0.4478
      7 C         141.0802  140.2206  165.9204 C.ar    1  UNL1        0.0357
      8 C         141.3125  139.7110  164.5288 C.ar    1  UNL1        0.0007
      9 C         142.5247  140.1497  163.7621 C.ar    1  UNL1        0.0029
     10 C         143.5048  141.0979  164.3869 C.ar    1  UNL1        0.0032
     11 C         143.2726  141.6075  165.7785 C.ar    1  UNL1        0.0366
     12 C         142.0602  141.1687  166.5452 C.ar    1  UNL1        0.1360
     13 O         141.8280  141.6782  167.9368 O.3     1  UNL1       -0.4826
     14 C         140.6157  141.2396  168.7035 C.3     1  UNL1        0.1395
     15 C         141.3465  142.1661  169.6296 C.3     1  UNL1        0.0404
     16 C         140.2872  141.9601  170.6715 C.3     1  UNL1        0.0072
     17 C         139.5564  141.0336  169.7454 C.3     1  UNL1        0.0404
     18 C         139.6357  140.2914  168.0786 C.3     1  UNL1        0.1141
     19 C         139.9739  140.4138  167.8648 C.3     1  UNL1        0.1501
     20 O         139.6184  140.2851  168.0896 O.3     1  UNL1       -0.3532
     21 C         139.9739  140.4138  167.8648 C.3     1  UNL1        0.1501
     22 H         139.0857  137.5495  163.0941 H       1  UNL1        0.1466
     23 H         137.6638  136.9535  163.8226 H       1  UNL1        0.1466
     24 C         142.7570  139.6402  162.3705 C.ar    1  UNL1        0.0384
     25 C         141.6058  139.1253  161.5584 C.ar    1  UNL1        0.1022
     26 N         141.8380  138.6158  160.1669 N.ar    1  UNL1       -0.2224
     27 C         143.2215  138.6212  159.5874 C.ar    1  UNL1        0.1989
     28 N         144.3728  139.1361  160.3994 N.ar    1  UNL1       -0.2224
     29 C         144.1406  139.6456  161.7910 C.ar    1  UNL1        0.1022
@<TRIPOS>BOND
     1     1     2    1
     2     2     3    2
     3     3     4    1
     4     4     5    1
     5     5     6    1
     6     4     7    1
     7     7     8   ar
     8     8     9   ar
     9     9    24    1
    10    24    25   ar
    11    25    26   ar
    12    26    27   ar
    13    27    28   ar
    14    28    29   ar
    15     9    10   ar
    16    10    11   ar
    17    11    12   ar
    18    12    13    1
    19    13    14    1
    20    14    15    1
    21    15    16    1
    22    16    17    1
    23    14    18    1
    24    18    19    1
    25    19    20    1
    26    20    21    1
    27     6     2    1
    28    12     7   ar
    29    17    14    1
    30    21    18    1
    31    18     4    1
    32    29    24   ar
    33     1    22    1
    34     1    23    1
@<TRIPOS>MOLECULE
*****
 29 34 0 0 0
SMALL
GASTEIGER

@<TRIPOS>ATOM
      1 N         144.4808  143.6001  166.2185 N.pl3   1  UNL1       -0.3133
      2 C         144.2837  142.5532  165.1626 C.2     1  UNL1        0.2770
      3 N         143.1831  141.5345  165.1254 N.2     1  UNL1       -0.2202
      4 C         143.3717  140.6928  163.8984 C.3     1  UNL1        0.1580
      5 C         144.5889  141.1912  163.1770 C.3     1  UNL1        0.2351
      6 O         145.1525  142.3409  163.9584 O.2     1  UNL1       -0.4478
      7 C         142.1819  140.3067  164.7261 C.ar    1  UNL1        0.0357
      8 C         141.8669  141.0605  165.9841 C.ar    1  UNL1        0.0007
      9 C         140.6771  140.6743  166.8119 C.ar    1  UNL1        0.0029
     10 C         139.8022  139.5343  166.3816 C.ar    1  UNL1        0.0032
     11 C         140.1172  138.7806  165.1236 C.ar    1  UNL1        0.0366
     12 C         141.3070  139.1668  164.2958 C.ar    1  UNL1        0.1360
     13 O         141.6220  138.4130  163.0378 O.3     1  UNL1       -0.4826
     14 C         142.8118  138.7992  162.2100 C.3     1  UNL1        0.1395
     15 C         142.1916  137.6431  161.4827 C.3     1  UNL1        0.0404
     16 C         143.2573  137.7331  160.4309 C.3     1  UNL1        0.0072
     17 C         143.8775  138.8892  161.1582 C.3     1  UNL1        0.0404
     18 C         143.6867  139.9391  162.6403 C.3     1  UNL1        0.1141
     19 C         143.3547  139.8313  162.8712 C.3     1  UNL1        0.1501
     20 O         143.7036  139.9446  162.6285 O.3     1  UNL1       -0.3532
     21 C         143.3547  139.8313  162.8712 C.3     1  UNL1        0.1501
     22 H         143.8537  143.6604  166.9750 H       1  UNL1        0.1466
     23 H         145.2373  144.2270  166.1550 H       1  UNL1        0.1466
     24 C         140.3622  141.4281  168.0699 C.ar    1  UNL1        0.0384
     25 C         139.8260  140.6995  169.2664 C.ar    1  UNL1        0.1022
     26 N         139.5110  141.4533  170.5244 N.ar    1  UNL1       -0.2224
     27 C         139.7322  142.9356  170.5860 C.ar    1  UNL1        0.1989
     28 N         140.2684  143.6642  169.3894 N.ar    1  UNL1       -0.2224
     29 C         140.5834  142.9104  168.1314 C.ar    1  UNL1        0.1022
@<TRIPOS>BOND
     1     1     2    1
     2     2     3    2
     3     3     4    1
     4     4     5    1
     5     5     6    1
     6     4     7    1
     7     7     8   ar
     8     8     9   ar
     9     9    24    1
    10    24    25   ar
    11    25    26   ar
    12    26    27   ar
    13    27    28   ar
    14    28    29   ar
    15     9    10   ar
    16    10    11   ar
    17    11    12   ar
    18    12    13    1
    19    13    14    1
    20    14    15    1
    21    15    16    1
    22    16    17    1
    23    14    18    1
    24    18    19    1
    25    19    20    1
    26    20    21    1
    27     6     2    1
    28    12     7   ar
    29    17    14    1
    30    21    18    1
    31    18     4    1
    32    29    24   ar
    33     1    22    1
    34     1    23    1
@<TRIPOS>MOLECULE
*****
 29 34 0 0 0
SMALL
GASTEIGER

@<TRIPOS>ATOM
      1 N         143.7079  142.6631  165.8355 N.pl3   1  UNL1       -0.3133
      2 C         142.8971  141.8535  164.8675 C.2     1  UNL1        0.2770
      3 N         141.6596  141.0704  165.1927 N.2     1  UNL1       -0.2202
      4 C         141.1791  140.4178  163.9306 C.3     1  UNL1        0.1580
      5 C         142.1195  140.7975  162.8253 C.3     1  UNL1        0.2351
      6 O         143.1813  141.6848  163.4044 O.2     1  UNL1       -0.4478
      7 C         140.3287  140.1248  165.1309 C.ar    1  UNL1        0.0357
      8 C         140.6869  140.7099  166.4648 C.ar    1  UNL1        0.0007
      9 C         139.8365  140.4169  167.6651 C.ar    1  UNL1        0.0029
     10 C         138.6277  139.5388  167.5316 C.ar    1  UNL1        0.0032
     11 C         138.2695  138.9536  166.1978 C.ar    1  UNL1        0.0366
     12 C         139.1200  139.2466  164.9974 C.ar    1  UNL1        0.1360
     13 O         138.7617  138.6615  163.6635 O.3     1  UNL1       -0.4826
     14 C         139.6121  138.9545  162.4631 C.3     1  UNL1        0.1395
     15 C         138.5181  138.0625  161.9555 C.3     1  UNL1        0.0404
     16 C         139.1055  138.1269  160.5767 C.3     1  UNL1        0.0072
     17 C         140.1995  139.0188  161.0844 C.3     1  UNL1        0.0404
     18 C         140.8208  139.8326  162.5967 C.3     1  UNL1        0.1141
     19 C         140.5836  139.7509  162.9315 C.3     1  UNL1        0.1501
     20 O         140.8329  139.8368  162.5796 O.3     1  UNL1       -0.3532
     21 C         140.5836  139.7509  162.9315 C.3     1  UNL1        0.1501
     22 H         143.4395  142.7129  166.7814 H       1  UNL1        0.1466
     23 H         144.5085  143.1446  165.5250 H       1  UNL1        0.1466
     24 C         140.1947  141.0021  168.9990 C.ar    1  UNL1        0.0384
     25 C         140.5720  142.4499  169.1060 C.ar    1  UNL1        0.1022
     26 N         140.9303  143.0351  170.4398 N.ar    1  UNL1       -0.2224
     27 C         140.9113  142.1724  171.6668 C.ar    1  UNL1        0.1989
     28 N         140.5340  140.7245  171.5599 N.ar    1  UNL1       -0.2224
     29 C         140.1757  140.1394  170.2260 C.ar    1  UNL1        0.1022
@<TRIPOS>BOND
     1     1     2    1
     2     2     3    2
     3     3     4    1
     4     4     5    1
     5     5     6    1
     6     4     7    1
     7     7     8   ar
     8     8     9   ar
     9     9    24    1
    10    24    25   ar
    11    25    26   ar
    12    26    27   ar
    13    27    28   ar
    14    28    29   ar
    15     9    10   ar
    16    10    11   ar
    17    11    12   ar
    18    12    13    1
    19    13    14    1
    20    14    15    1
    21    15    16    1
    22    16    17    1
    23    14    18    1
    24    18    19    1
    25    19    20    1
    26    20    21    1
    27     6     2    1
    28    12     7   ar
    29    17    14    1
    30    21    18    1
    31    18     4    1
    32    29    24   ar
    33     1    22    1
    34     1    23    1
@<TRIPOS>MOLECULE
*****
 29 34 0 0 0
SMALL
GASTEIGER

@<TRIPOS>ATOM
      1 N         144.0870  138.8952  162.1755 N.pl3   1  UNL1       -0.3133
      2 C         143.6239  139.0565  163.5930 C.2     1  UNL1        0.2770
      3 N         142.2265  139.3792  164.0328 N.2     1  UNL1       -0.2202
      4 C         142.2158  139.4456  165.5312 C.3     1  UNL1        0.1580
      5 C         143.6066  139.1640  166.0176 C.3     1  UNL1        0.2351
      6 O         144.4768  138.9235  164.8197 O.2     1  UNL1       -0.4478
      7 C         140.8812  139.7089  164.8993 C.ar    1  UNL1        0.0357
      8 C         140.7386  139.6760  163.4065 C.ar    1  UNL1        0.0007
      9 C         139.4039  139.9392  162.7746 C.ar    1  UNL1        0.0029
     10 C         138.2118  140.2353  163.6355 C.ar    1  UNL1        0.0032
     11 C         138.3543  140.2682  165.1283 C.ar    1  UNL1        0.0366
     12 C         139.6891  140.0049  165.7602 C.ar    1  UNL1        0.1360
     13 O         139.8317  140.0377  167.2531 O.3     1  UNL1       -0.4826
     14 C         141.1663  139.7745  167.8850 C.3     1  UNL1        0.1395
     15 C         140.2356  140.0261  169.0342 C.3     1  UNL1        0.0404
     16 C         141.3680  139.8210  169.9963 C.3     1  UNL1        0.0072
     17 C         142.2988  139.5694  168.8471 C.3     1  UNL1        0.0404
     18 C         142.3584  139.4785  167.0241 C.3     1  UNL1        0.1141
     19 C         141.9861  139.5519  166.8478 C.3     1  UNL1        0.1501
     20 O         142.3774  139.4747  167.0331 O.3     1  UNL1       -0.3532
     21 C         141.9861  139.5519  166.8478 C.3     1  UNL1        0.1501
     22 H         143.4485  139.0023  161.4338 H       1  UNL1        0.1466
     23 H         145.0295  138.6822  161.9868 H       1  UNL1        0.1466
     24 C         139.2613  139.9064  161.2817 C.ar    1  UNL1        0.0384
     25 C         140.4749  139.7408  160.4158 C.ar    1  UNL1        0.1022
     26 N         140.3323  139.7080  158.9230 N.ar    1  UNL1       -0.2224
     27 C         138.9762  139.8407  158.2960 C.ar    1  UNL1        0.1989
     28 N         137.7625  140.0063  159.1619 N.ar    1  UNL1       -0.2224
     29 C         137.9051  140.0392  160.6547 C.ar    1  UNL1        0.1022
@<TRIPOS>BOND
     1     1     2    1
     2     2     3    2
     3     3     4    1
     4     4     5    1
     5     5     6    1
     6     4     7    1
     7     7     8   ar
     8     8     9   ar
     9     9    24    1
    10    24    25   ar
    11    25    26   ar
    12    26    27   ar
    13    27    28   ar
    14    28    29   ar
    15     9    10   ar
    16    10    11   ar
    17    11    12   ar
    18    12    13    1
    19    13    14    1
    20    14    15    1
    21    15    16    1
    22    16    17    1
    23    14    18    1
    24    18    19    1
    25    19    20    1
    26    20    21    1
    27     6     2    1
    28    12     7   ar
    29    17    14    1
    30    21    18    1
    31    18     4    1
    32    29    24   ar
    33     1    22    1
    34     1    23    1
@<TRIPOS>MOLECULE
*****
 29 34 0 0 0
SMALL
GASTEIGER

@<TRIPOS>ATOM
      1 N         137.3371  141.9284  164.5286 N.pl3   1  UNL1       -0.3133
      2 C         138.3541  141.1517  163.7461 C.2     1  UNL1        0.2770
      3 N         139.6608  140.6328  164.2691 N.2     1  UNL1       -0.2202
      4 C         140.3572  139.9179  163.1495 C.3     1  UNL1        0.1580
      5 C         139.4810  139.9948  161.9344 C.3     1  UNL1        0.2351
      6 O         138.2430  140.7573  162.3031 O.2     1  UNL1       -0.4478
      7 C         141.1223  139.9226  164.4397 C.ar    1  UNL1        0.0357
      8 C         140.5496  140.6009  165.6488 C.ar    1  UNL1        0.0007
      9 C         141.3146  140.6056  166.9390 C.ar    1  UNL1        0.0029
     10 C         142.6524  139.9320  167.0201 C.ar    1  UNL1        0.0032
     11 C         143.2252  139.2537  165.8110 C.ar    1  UNL1        0.0366
     12 C         142.4600  139.2490  164.5208 C.ar    1  UNL1        0.1360
     13 O         143.0327  138.5707  163.3117 O.3     1  UNL1       -0.4826
     14 C         142.2677  138.5660  162.0215 C.3     1  UNL1        0.1395
     15 C         143.5312  137.8132  161.7264 C.3     1  UNL1        0.0404
     16 C         143.0777  137.6067  160.3115 C.3     1  UNL1        0.0072
     17 C         141.8142  138.3594  160.6066 C.3     1  UNL1        0.0404
     18 C         140.9300  139.2396  161.9404 C.3     1  UNL1        0.1141
     19 C         141.1434  139.2409  162.3003 C.3     1  UNL1        0.1501
     20 O         140.9191  139.2395  161.9220 O.3     1  UNL1       -0.3532
     21 C         141.1434  139.2409  162.3003 C.3     1  UNL1        0.1501
     22 H         137.5014  142.1396  165.4760 H       1  UNL1        0.1466
     23 H         136.5053  142.2270  164.0947 H       1  UNL1        0.1466
     24 C         140.7419  141.2839  168.1480 C.ar    1  UNL1        0.0384
     25 C         140.1466  140.4659  169.2555 C.ar    1  UNL1        0.1022
     26 N         139.5739  141.1442  170.4646 N.ar    1  UNL1       -0.2224
     27 C         139.5965  142.6405  170.5662 C.ar    1  UNL1        0.1989
     28 N         140.1917  143.4587  169.4588 N.ar    1  UNL1       -0.2224
     29 C         140.7645  142.7804  168.2497 C.ar    1  UNL1        0.1022
@<TRIPOS>BOND
     1     1     2    1
     2     2     3    2
     3     3     4    1
     4     4     5    1
     5     5     6    1
     6     4     7    1
     7     7     8   ar
     8     8     9   ar
     9     9    24    1
    10    24    25   ar
    11    25    26   ar
    12    26    27   ar
    13    27    28   ar
    14    28    29   ar
    15     9    10   ar
    16    10    11   ar
    17    11    12   ar
    18    12    13    1
    19    13    14    1
    20    14    15    1
    21    15    16    1
    22    16    17    1
    23    14    18    1
    24    18    19    1
    25    19    20    1
    26    20    21    1
    27     6     2    1
    28    12     7   ar
    29    17    14    1
    30    21    18    1
    31    18     4    1
    32    29    24   ar
    33     1    22    1
    34     1    23    1
