@<TRIPOS>MOLECULE
*****
 24 26 0 0 0
SMALL
GASTEIGER

@<TRIPOS>ATOM
      1 C         137.5653  138.2405  166.9634 C.3     1  UNL1        0.0540
      2 C         138.6085  139.3182  166.9688 C.ar    1  UNL1        0.0804
      3 N         139.3649  139.8072  168.1682 N.ar    1  UNL1       -0.1698
      4 N         140.3024  140.8875  167.7164 N.ar    1  UNL1       -0.2340
      5 C         140.1255  141.0661  166.2376 C.ar    1  UNL1        0.0620
      6 C         140.8655  142.0430  165.3728 C.3     1  UNL1        0.0522
      7 C         139.0786  140.0963  165.7755 C.ar    1  UNL1        0.0289
      8 C         138.5880  139.9332  164.3675 C.ar    1  UNL1        0.0025
      9 C         137.8520  141.0540  163.6951 C.ar    1  UNL1        0.0024
     10 C         137.3613  140.8908  162.2870 C.ar    1  UNL1        0.0296
     11 C         137.6066  139.6069  161.5514 C.ar    1  UNL1        0.1401
     12 F         137.1160  139.4438  160.1433 F       1  UNL1       -0.2042
     13 C         138.3427  138.4860  162.2238 C.ar    1  UNL1        0.0296
     14 C         138.8333  138.6492  163.6317 C.ar    1  UNL1        0.0024
     15 C         141.2505  141.6544  168.5900 C.ar    1  UNL1        0.0824
     16 C         140.7549  142.8221  169.3904 C.ar    1  UNL1        0.0189
     17 C         141.7029  143.5890  170.2640 C.ar    1  UNL1       -0.0014
     18 C         143.1465  143.1881  170.3371 C.ar    1  UNL1       -0.0065
     19 C         143.6421  142.0204  169.5366 C.ar    1  UNL1       -0.0014
     20 C         142.6941  141.2535  168.6631 C.ar    1  UNL1        0.0189
     21 C         144.0945  143.9551  171.2107 C.3     1  UNL1        0.0922
     22 N         145.5651  143.9402  170.9157 N.3     1  UNL1       -0.3175
     23 H         145.9301  142.9978  171.0538 H       1  UNL1        0.1192
     24 H         146.0444  144.5858  171.5433 H       1  UNL1        0.1192
@<TRIPOS>BOND
     1     1     2    1
     2     2     3   ar
     3     3     4   ar
     4     4    15    1
     5    15    16   ar
     6    16    17   ar
     7    17    18   ar
     8    18    21    1
     9    21    22    1
    10    18    19   ar
    11    19    20   ar
    12     4     5   ar
    13     5     6    1
    14     5     7   ar
    15     7     8    1
    16     8     9   ar
    17     9    10   ar
    18    10    11   ar
    19    11    12    1
    20    11    13   ar
    21    13    14   ar
    22     7     2   ar
    23    14     8   ar
    24    20    15   ar
    25    22    23    1
    26    22    24    1
@<TRIPOS>MOLECULE
*****
 24 26 0 0 0
SMALL
GASTEIGER

@<TRIPOS>ATOM
      1 C         142.9798  138.9807  167.4616 C.3     1  UNL1        0.0540
      2 C         142.0374  139.3648  166.3596 C.ar    1  UNL1        0.0804
      3 N         142.0782  138.8587  164.9482 N.ar    1  UNL1       -0.1698
      4 N         140.9547  139.5036  164.1919 N.ar    1  UNL1       -0.2340
      5 C         140.2196  140.4083  165.1359 C.ar    1  UNL1        0.0620
      6 C         139.0251  141.2508  164.7993 C.3     1  UNL1        0.0522
      7 C         140.8887  140.3225  166.4756 C.ar    1  UNL1        0.0289
      8 C         140.4808  141.0642  167.7140 C.ar    1  UNL1        0.0025
      9 C         139.6880  140.3666  168.7792 C.ar    1  UNL1        0.0024
     10 C         139.2800  141.1083  170.0175 C.ar    1  UNL1        0.0296
     11 C         139.6650  142.5476  170.1907 C.ar    1  UNL1        0.1401
     12 F         139.2571  143.2893  171.4290 F       1  UNL1       -0.2042
     13 C         140.4580  143.2453  169.1255 C.ar    1  UNL1        0.0296
     14 C         140.8658  142.5036  167.8872 C.ar    1  UNL1        0.0024
     15 C         140.6244  139.2826  162.7454 C.ar    1  UNL1        0.0824
     16 C         141.3414  140.0638  161.6845 C.ar    1  UNL1        0.0189
     17 C         141.0110  139.8428  160.2382 C.ar    1  UNL1       -0.0014
     18 C         139.9637  138.8405  159.8528 C.ar    1  UNL1       -0.0065
     19 C         139.2467  138.0593  160.9137 C.ar    1  UNL1       -0.0014
     20 C         139.5770  138.2803  162.3600 C.ar    1  UNL1        0.0189
     21 C         139.6333  138.6195  158.4063 C.3     1  UNL1        0.0922
     22 N         138.6853  139.5454  157.7036 N.3     1  UNL1       -0.3175
     23 H         137.7538  139.4494  158.1080 H       1  UNL1        0.1192
     24 H         138.6514  139.3089  156.7119 H       1  UNL1        0.1192
@<TRIPOS>BOND
     1     1     2    1
     2     2     3   ar
     3     3     4   ar
     4     4    15    1
     5    15    16   ar
     6    16    17   ar
     7    17    18   ar
     8    18    21    1
     9    21    22    1
    10    18    19   ar
    11    19    20   ar
    12     4     5   ar
    13     5     6    1
    14     5     7   ar
    15     7     8    1
    16     8     9   ar
    17     9    10   ar
    18    10    11   ar
    19    11    12    1
    20    11    13   ar
    21    13    14   ar
    22     7     2   ar
    23    14     8   ar
    24    20    15   ar
    25    22    23    1
    26    22    24    1
@<TRIPOS>MOLECULE
*****
 24 26 0 0 0
SMALL
GASTEIGER

@<TRIPOS>ATOM
      1 C         143.3712  138.2570  166.1423 C.3     1  UNL1        0.0540
      2 C         142.9297  138.8921  164.8571 C.ar    1  UNL1        0.0804
      3 N         143.8288  139.3787  163.7596 N.ar    1  UNL1       -0.1698
      4 N         142.9663  139.9395  162.6679 N.ar    1  UNL1       -0.2340
      5 C         141.5340  139.7994  163.0908 C.ar    1  UNL1        0.0620
      6 C         140.3348  140.2308  162.2997 C.3     1  UNL1        0.0522
      7 C         141.5113  139.1521  164.4438 C.ar    1  UNL1        0.0289
      8 C         140.2855  138.8226  165.2432 C.ar    1  UNL1        0.0025
      9 C         139.4742  137.6071  164.9054 C.ar    1  UNL1        0.0024
     10 C         138.2484  137.2776  165.7048 C.ar    1  UNL1        0.0296
     11 C         137.8341  138.1637  166.8418 C.ar    1  UNL1        0.1401
     12 F         136.6083  137.8342  167.6412 F       1  UNL1       -0.2042
     13 C         138.6454  139.3794  167.1796 C.ar    1  UNL1        0.0296
     14 C         139.8711  139.7087  166.3803 C.ar    1  UNL1        0.0024
     15 C         143.4510  140.5356  161.3796 C.ar    1  UNL1        0.0824
     16 C         143.9957  141.9330  161.3579 C.ar    1  UNL1        0.0189
     17 C         144.4803  142.5291  160.0696 C.ar    1  UNL1       -0.0014
     18 C         144.4203  141.7277  158.8030 C.ar    1  UNL1       -0.0065
     19 C         143.8756  140.3303  158.8247 C.ar    1  UNL1       -0.0014
     20 C         143.3909  139.7343  160.1130 C.ar    1  UNL1        0.0189
     21 C         144.9050  142.3239  157.5147 C.3     1  UNL1        0.0922
     22 N         146.2934  142.8842  157.4230 N.3     1  UNL1       -0.3175
     23 H         146.3710  143.7010  158.0289 H       1  UNL1        0.1192
     24 H         146.4874  143.1560  156.4592 H       1  UNL1        0.1192
@<TRIPOS>BOND
     1     1     2    1
     2     2     3   ar
     3     3     4   ar
     4     4    15    1
     5    15    16   ar
     6    16    17   ar
     7    17    18   ar
     8    18    21    1
     9    21    22    1
    10    18    19   ar
    11    19    20   ar
    12     4     5   ar
    13     5     6    1
    14     5     7   ar
    15     7     8    1
    16     8     9   ar
    17     9    10   ar
    18    10    11   ar
    19    11    12    1
    20    11    13   ar
    21    13    14   ar
    22     7     2   ar
    23    14     8   ar
    24    20    15   ar
    25    22    23    1
    26    22    24    1
@<TRIPOS>MOLECULE
*****
 24 26 0 0 0
SMALL
GASTEIGER

@<TRIPOS>ATOM
      1 C         140.3233  140.5757  161.3687 C.3     1  UNL1        0.0540
      2 C         140.7797  141.4893  162.4673 C.ar    1  UNL1        0.0804
      3 N         140.8782  141.1380  163.9223 N.ar    1  UNL1       -0.1698
      4 N         141.3771  142.3461  164.6581 N.ar    1  UNL1       -0.2340
      5 C         141.5870  143.4441  163.6579 C.ar    1  UNL1        0.0620
      6 C         142.0797  144.8286  163.9588 C.3     1  UNL1        0.0522
      7 C         141.2178  142.9146  162.3039 C.ar    1  UNL1        0.0289
      8 C         141.2764  143.6765  161.0132 C.ar    1  UNL1        0.0025
      9 C         140.2497  144.7290  160.7163 C.ar    1  UNL1        0.0024
     10 C         140.3083  145.4909  159.4255 C.ar    1  UNL1        0.0296
     11 C         141.3936  145.2004  158.4317 C.ar    1  UNL1        0.1401
     12 F         141.4522  145.9623  157.1410 F       1  UNL1       -0.2042
     13 C         142.4204  144.1478  158.7287 C.ar    1  UNL1        0.0296
     14 C         142.3617  143.3860  160.0193 C.ar    1  UNL1        0.0024
     15 C         141.6230  142.4398  166.1349 C.ar    1  UNL1        0.0824
     16 C         140.4854  142.7330  167.0675 C.ar    1  UNL1        0.0189
     17 C         140.7313  142.8267  168.5442 C.ar    1  UNL1       -0.0014
     18 C         142.1148  142.6272  169.0883 C.ar    1  UNL1       -0.0065
     19 C         143.2524  142.3340  168.1557 C.ar    1  UNL1       -0.0014
     20 C         143.0065  142.2404  166.6790 C.ar    1  UNL1        0.0189
     21 C         142.3607  142.7209  170.5651 C.3     1  UNL1        0.0922
     22 N         143.2490  143.7994  171.1106 N.3     1  UNL1       -0.3175
     23 H         144.2047  143.6484  170.7877 H       1  UNL1        0.1192
     24 H         143.2268  143.7750  172.1300 H       1  UNL1        0.1192
@<TRIPOS>BOND
     1     1     2    1
     2     2     3   ar
     3     3     4   ar
     4     4    15    1
     5    15    16   ar
     6    16    17   ar
     7    17    18   ar
     8    18    21    1
     9    21    22    1
    10    18    19   ar
    11    19    20   ar
    12     4     5   ar
    13     5     6    1
    14     5     7   ar
    15     7     8    1
    16     8     9   ar
    17     9    10   ar
    18    10    11   ar
    19    11    12    1
    20    11    13   ar
    21    13    14   ar
    22     7     2   ar
    23    14     8   ar
    24    20    15   ar
    25    22    23    1
    26    22    24    1
@<TRIPOS>MOLECULE
*****
 24 26 0 0 0
SMALL
GASTEIGER

@<TRIPOS>ATOM
      1 C         137.9832  138.3874  162.2765 C.3     1  UNL1        0.0540
      2 C         138.9070  139.0831  163.2317 C.ar    1  UNL1        0.0804
      3 N         138.5542  139.5616  164.6089 N.ar    1  UNL1       -0.1698
      4 N         139.7750  140.1968  165.2058 N.ar    1  UNL1       -0.2340
      5 C         140.8823  140.1108  164.1977 C.ar    1  UNL1        0.0620
      6 C         142.2805  140.6231  164.3778 C.3     1  UNL1        0.0522
      7 C         140.3459  139.4225  162.9776 C.ar    1  UNL1        0.0289
      8 C         141.1136  139.1258  161.7235 C.ar    1  UNL1        0.0025
      9 C         140.9377  139.9943  160.5133 C.ar    1  UNL1        0.0024
     10 C         141.7054  139.6975  159.2592 C.ar    1  UNL1        0.0296
     11 C         142.6488  138.5323  159.2155 C.ar    1  UNL1        0.1401
     12 F         143.4165  138.2355  157.9614 F       1  UNL1       -0.2042
     13 C         142.8247  137.6637  160.4258 C.ar    1  UNL1        0.0296
     14 C         142.0571  137.9605  161.6797 C.ar    1  UNL1        0.0024
     15 C         139.8714  140.8102  166.5713 C.ar    1  UNL1        0.0824
     16 C         140.3267  142.2312  166.7247 C.ar    1  UNL1        0.0189
     17 C         140.4231  142.8445  168.0902 C.ar    1  UNL1       -0.0014
     18 C         140.0643  142.0369  169.3022 C.ar    1  UNL1       -0.0065
     19 C         139.6090  140.6160  169.1488 C.ar    1  UNL1       -0.0014
     20 C         139.5126  140.0026  167.7834 C.ar    1  UNL1        0.0189
     21 C         140.1608  142.6503  170.6677 C.3     1  UNL1        0.0922
     22 N         140.7600  141.8699  171.7998 N.3     1  UNL1       -0.3175
     23 H         140.1647  141.0698  172.0138 H       1  UNL1        0.1192
     24 H         140.8348  142.4678  172.6228 H       1  UNL1        0.1192
@<TRIPOS>BOND
     1     1     2    1
     2     2     3   ar
     3     3     4   ar
     4     4    15    1
     5    15    16   ar
     6    16    17   ar
     7    17    18   ar
     8    18    21    1
     9    21    22    1
    10    18    19   ar
    11    19    20   ar
    12     4     5   ar
    13     5     6    1
    14     5     7   ar
    15     7     8    1
    16     8     9   ar
    17     9    10   ar
    18    10    11   ar
    19    11    12    1
    20    11    13   ar
    21    13    14   ar
    22     7     2   ar
    23    14     8   ar
    24    20    15   ar
    25    22    23    1
    26    22    24    1
@<TRIPOS>MOLECULE
*****
 24 26 0 0 0
SMALL
GASTEIGER

@<TRIPOS>ATOM
      1 C         144.0934  143.9751  163.4764 C.3     1  UNL1        0.0540
      2 C         142.8217  143.5270  164.1336 C.ar    1  UNL1        0.0804
      3 N         142.7077  142.8697  165.4771 N.ar    1  UNL1       -0.1698
      4 N         141.2562  142.5940  165.7366 N.ar    1  UNL1       -0.2340
      5 C         140.4732  143.0809  164.5535 C.ar    1  UNL1        0.0620
      6 C         138.9841  143.0046  164.3897 C.3     1  UNL1        0.0522
      7 C         141.4407  143.6575  163.5628 C.ar    1  UNL1        0.0289
      8 C         141.0890  144.2591  162.2345 C.ar    1  UNL1        0.0025
      9 C         140.3267  145.5495  162.1738 C.ar    1  UNL1        0.0024
     10 C         139.9749  146.1511  160.8455 C.ar    1  UNL1        0.0296
     11 C         140.3855  145.4622  159.5779 C.ar    1  UNL1        0.1401
     12 F         140.0338  146.0638  158.2496 F       1  UNL1       -0.2042
     13 C         141.1479  144.1718  159.6385 C.ar    1  UNL1        0.0296
     14 C         141.4995  143.5703  160.9668 C.ar    1  UNL1        0.0024
     15 C         140.6877  141.9452  166.9638 C.ar    1  UNL1        0.0824
     16 C         140.1402  140.5507  166.8897 C.ar    1  UNL1        0.0189
     17 C         139.5717  139.9020  168.1168 C.ar    1  UNL1       -0.0014
     18 C         139.5506  140.6479  169.4181 C.ar    1  UNL1       -0.0065
     19 C         140.0980  142.0424  169.4922 C.ar    1  UNL1       -0.0014
     20 C         140.6666  142.6911  168.2650 C.ar    1  UNL1        0.0189
     21 C         138.9820  139.9991  170.6452 C.3     1  UNL1        0.0922
     22 N         137.5535  139.5421  170.6585 N.3     1  UNL1       -0.3175
     23 H         136.9368  140.3518  170.5922 H       1  UNL1        0.1192
     24 H         137.3648  139.0411  171.5268 H       1  UNL1        0.1192
@<TRIPOS>BOND
     1     1     2    1
     2     2     3   ar
     3     3     4   ar
     4     4    15    1
     5    15    16   ar
     6    16    17   ar
     7    17    18   ar
     8    18    21    1
     9    21    22    1
    10    18    19   ar
    11    19    20   ar
    12     4     5   ar
    13     5     6    1
    14     5     7   ar
    15     7     8    1
    16     8     9   ar
    17     9    10   ar
    18    10    11   ar
    19    11    12    1
    20    11    13   ar
    21    13    14   ar
    22     7     2   ar
    23    14     8   ar
    24    20    15   ar
    25    22    23    1
    26    22    24    1
@<TRIPOS>MOLECULE
*****
 24 26 0 0 0
SMALL
GASTEIGER

@<TRIPOS>ATOM
      1 C         143.5956  142.5199  166.2216 C.3     1  UNL1        0.0540
      2 C         143.0564  141.3985  165.3841 C.ar    1  UNL1        0.0804
      3 N         143.3465  141.1647  163.9311 N.ar    1  UNL1       -0.1698
      4 N         142.6017  139.9356  163.5015 N.ar    1  UNL1       -0.2340
      5 C         141.8512  139.4097  164.6890 C.ar    1  UNL1        0.0620
      6 C         140.9738  138.1933  164.7095 C.3     1  UNL1        0.0522
      7 C         142.1322  140.3138  165.8525 C.ar    1  UNL1        0.0289
      8 C         141.5850  140.1601  167.2407 C.ar    1  UNL1        0.0025
      9 C         140.1602  140.5287  167.5303 C.ar    1  UNL1        0.0024
     10 C         139.6130  140.3751  168.9185 C.ar    1  UNL1        0.0296
     11 C         140.4908  139.8529  170.0170 C.ar    1  UNL1        0.1401
     12 F         139.9437  139.6993  171.4052 F       1  UNL1       -0.2042
     13 C         141.9157  139.4843  169.7274 C.ar    1  UNL1        0.0296
     14 C         142.4628  139.6379  168.3393 C.ar    1  UNL1        0.0024
     15 C         142.6066  139.3374  162.1259 C.ar    1  UNL1        0.0824
     16 C         143.3718  138.0751  161.8597 C.ar    1  UNL1        0.0189
     17 C         143.3766  137.4770  160.4841 C.ar    1  UNL1       -0.0014
     18 C         142.6162  138.1412  159.3748 C.ar    1  UNL1       -0.0065
     19 C         141.8510  139.4035  159.6410 C.ar    1  UNL1       -0.0014
     20 C         141.8462  140.0016  161.0165 C.ar    1  UNL1        0.0189
     21 C         142.6211  137.5430  157.9992 C.3     1  UNL1        0.0922
     22 N         143.4264  138.1814  156.9066 N.3     1  UNL1       -0.3175
     23 H         143.0396  139.1005  156.6917 H       1  UNL1        0.1192
     24 H         143.3931  137.5951  156.0726 H       1  UNL1        0.1192
@<TRIPOS>BOND
     1     1     2    1
     2     2     3   ar
     3     3     4   ar
     4     4    15    1
     5    15    16   ar
     6    16    17   ar
     7    17    18   ar
     8    18    21    1
     9    21    22    1
    10    18    19   ar
    11    19    20   ar
    12     4     5   ar
    13     5     6    1
    14     5     7   ar
    15     7     8    1
    16     8     9   ar
    17     9    10   ar
    18    10    11   ar
    19    11    12    1
    20    11    13   ar
    21    13    14   ar
    22     7     2   ar
    23    14     8   ar
    24    20    15   ar
    25    22    23    1
    26    22    24    1
@<TRIPOS>MOLECULE
*****
 24 26 0 0 0
SMALL
GASTEIGER

@<TRIPOS>ATOM
      1 C         143.2490  138.0449  161.9540 C.3     1  UNL1        0.0540
      2 C         142.7548  138.9607  163.0343 C.ar    1  UNL1        0.0804
      3 N         142.3636  138.5543  164.4242 N.ar    1  UNL1       -0.1698
      4 N         141.9321  139.7862  165.1632 N.ar    1  UNL1       -0.2340
      5 C         142.0566  140.9540  164.2302 C.ar    1  UNL1        0.0620
      6 C         141.7299  142.3813  164.5556 C.3     1  UNL1        0.0522
      7 C         142.5650  140.4439  162.9144 C.ar    1  UNL1        0.0289
      8 C         142.8361  141.2715  161.6931 C.ar    1  UNL1        0.0025
      9 C         141.7037  141.6836  160.7999 C.ar    1  UNL1        0.0024
     10 C         141.9748  142.5113  159.5786 C.ar    1  UNL1        0.0296
     11 C         143.3782  142.9268  159.2506 C.ar    1  UNL1        0.1401
     12 F         143.6493  143.7545  158.0294 F       1  UNL1       -0.2042
     13 C         144.5107  142.5147  160.1439 C.ar    1  UNL1        0.0296
     14 C         144.2395  141.6871  161.3651 C.ar    1  UNL1        0.0024
     15 C         141.4591  139.8406  166.5857 C.ar    1  UNL1        0.0824
     16 C         142.4471  139.7330  167.7092 C.ar    1  UNL1        0.0189
     17 C         141.9741  139.7874  169.1316 C.ar    1  UNL1       -0.0014
     18 C         140.5131  139.9496  169.4305 C.ar    1  UNL1       -0.0065
     19 C         139.5252  140.0573  168.3070 C.ar    1  UNL1       -0.0014
     20 C         139.9982  140.0028  166.8846 C.ar    1  UNL1        0.0189
     21 C         140.0402  140.0041  170.8530 C.3     1  UNL1        0.0922
     22 N         140.8984  140.6421  171.9048 N.3     1  UNL1       -0.3175
     23 H         141.7490  140.0931  172.0287 H       1  UNL1        0.1192
     24 H         140.3858  140.6784  172.7859 H       1  UNL1        0.1192
@<TRIPOS>BOND
     1     1     2    1
     2     2     3   ar
     3     3     4   ar
     4     4    15    1
     5    15    16   ar
     6    16    17   ar
     7    17    18   ar
     8    18    21    1
     9    21    22    1
    10    18    19   ar
    11    19    20   ar
    12     4     5   ar
    13     5     6    1
    14     5     7   ar
    15     7     8    1
    16     8     9   ar
    17     9    10   ar
    18    10    11   ar
    19    11    12    1
    20    11    13   ar
    21    13    14   ar
    22     7     2   ar
    23    14     8   ar
    24    20    15   ar
    25    22    23    1
    26    22    24    1
@<TRIPOS>MOLECULE
*****
 24 26 0 0 0
SMALL
GASTEIGER

@<TRIPOS>ATOM
      1 C         138.1047  138.0474  162.3809 C.3     1  UNL1        0.0540
      2 C         139.0117  138.8579  163.2586 C.ar    1  UNL1        0.0804
      3 N         138.6899  139.3588  164.6354 N.ar    1  UNL1       -0.1698
      4 N         139.8790  140.1204  165.1413 N.ar    1  UNL1       -0.2340
      5 C         140.9358  140.0902  164.0772 C.ar    1  UNL1        0.0620
      6 C         142.2906  140.7282  164.1618 C.3     1  UNL1        0.0522
      7 C         140.3998  139.3100  162.9136 C.ar    1  UNL1        0.0289
      8 C         141.1245  139.0309  161.6303 C.ar    1  UNL1        0.0025
      9 C         142.1794  137.9656  161.5811 C.ar    1  UNL1        0.0024
     10 C         142.9042  137.6864  160.2979 C.ar    1  UNL1        0.0296
     11 C         142.5741  138.4726  159.0638 C.ar    1  UNL1        0.1401
     12 F         143.2988  138.1934  157.7805 F       1  UNL1       -0.2042
     13 C         141.5191  139.5379  159.1130 C.ar    1  UNL1        0.0296
     14 C         140.7945  139.8170  160.3962 C.ar    1  UNL1        0.0024
     15 C         139.9916  140.7939  166.4769 C.ar    1  UNL1        0.0824
     16 C         139.8013  140.0003  167.7355 C.ar    1  UNL1        0.0189
     17 C         139.9139  140.6738  169.0710 C.ar    1  UNL1       -0.0014
     18 C         140.2168  142.1409  169.1480 C.ar    1  UNL1       -0.0065
     19 C         140.4070  142.9345  167.8894 C.ar    1  UNL1       -0.0014
     20 C         140.2944  142.2610  166.5539 C.ar    1  UNL1        0.0189
     21 C         140.3293  142.8144  170.4836 C.3     1  UNL1        0.0922
     22 N         140.4962  141.9917  171.7267 N.3     1  UNL1       -0.3175
     23 H         139.6533  141.4394  171.8846 H       1  UNL1        0.1192
     24 H         140.6529  142.6083  172.5240 H       1  UNL1        0.1192
@<TRIPOS>BOND
     1     1     2    1
     2     2     3   ar
     3     3     4   ar
     4     4    15    1
     5    15    16   ar
     6    16    17   ar
     7    17    18   ar
     8    18    21    1
     9    21    22    1
    10    18    19   ar
    11    19    20   ar
    12     4     5   ar
    13     5     6    1
    14     5     7   ar
    15     7     8    1
    16     8     9   ar
    17     9    10   ar
    18    10    11   ar
    19    11    12    1
    20    11    13   ar
    21    13    14   ar
    22     7     2   ar
    23    14     8   ar
    24    20    15   ar
    25    22    23    1
    26    22    24    1
