@<TRIPOS>MOLECULE
*****
 35 38 0 0 0
SMALL
GASTEIGER

@<TRIPOS>ATOM
      1 N         143.6765  133.5816  157.8865 N.am    1  UNL1       -0.1691
      2 C         143.5328  134.7231  156.9240 C.2     1  UNL1        0.3226
      3 O         143.7089  134.4902  155.4526 O.2     1  UNL1       -0.2510
      4 N         143.2130  136.0974  157.4328 N.am    1  UNL1       -0.2629
      5 C         143.0370  136.3304  158.9040 C.3     1  UNL1        0.0964
      6 C         142.7172  137.7047  159.4128 C.3     1  UNL1        0.0376
      7 C         142.5735  138.8462  158.4504 C.3     1  UNL1        0.0609
      8 C         142.7496  138.6133  156.9790 C.3     1  UNL1        0.0376
      9 C         143.0694  137.2389  156.4702 C.3     1  UNL1        0.0964
     10 H         143.5609  133.7345  158.8521 H       1  UNL1        0.1781
     11 N         142.2538  140.2205  158.9592 N.3     1  UNL1       -0.2736
     12 C         140.8365  140.5894  159.2832 C.3     1  UNL1        0.0758
     13 C         140.5167  141.9638  159.7920 C.3     1  UNL1        0.0609
     14 C         141.6143  142.9693  159.9767 C.3     1  UNL1        0.1687
     15 C         143.0317  142.6004  159.6527 C.3     1  UNL1        0.0609
     16 C         143.3515  141.2261  159.1439 C.3     1  UNL1        0.0758
     17 O         141.2946  144.3436  160.4855 O.3     1  UNL1       -0.4794
     18 C         140.5919  144.5121  161.8000 C.ar    1  UNL1        0.1344
     19 C         139.0936  144.4757  161.8595 C.ar    1  UNL1        0.0374
     20 C         138.3909  144.6442  163.1741 C.ar    1  UNL1        0.0145
     21 C         139.1866  144.8491  164.4290 C.ar    1  UNL1        0.0576
     22 CL        138.4839  145.0175  165.7435 Cl      1  UNL1       -0.0823
     23 C         140.6850  144.8855  164.3694 C.ar    1  UNL1        0.0101
     24 C         141.3876  144.7170  163.0549 C.ar    1  UNL1        0.0129
     25 C         142.8860  144.7534  162.9954 C.3     1  UNL1        0.0342
     26 S         143.9962  132.2072  157.3777 S.O2    1  UNL1        0.0768
     27 O         142.5578  132.0127  156.9991 O.2     1  UNL1       -0.1498
     28 O         145.4346  132.4018  157.7562 O.2     1  UNL1       -0.1498
     29 C         145.2752  126.7098  155.3425 C.3     1  UNL1        0.0310
     30 C         144.9554  128.0841  155.8513 C.ar    1  UNL1       -0.0218
     31 C         144.7885  129.2209  154.8870 C.ar    1  UNL1       -0.0029
     32 C         144.4688  130.5952  155.3958 C.ar    1  UNL1        0.0199
     33 C         144.3160  130.8329  156.8689 C.ar    1  UNL1        0.1253
     34 C         144.4829  129.6962  157.8332 C.ar    1  UNL1        0.0199
     35 C         144.8026  128.3218  157.3244 C.ar    1  UNL1       -0.0029
@<TRIPOS>BOND
     1    29    30    1
     2    30    31   ar
     3    31    32   ar
     4    32    33   ar
     5    33    26    1
     6    26    27    2
     7    26    28    2
     8    26     1    1
     9     1     2   am
    10     2     3    2
    11     2     4   am
    12     4     5    1
    13     5     6    1
    14     6     7    1
    15     7    11    1
    16    11    12    1
    17    12    13    1
    18    13    14    1
    19    14    17    1
    20    17    18    1
    21    18    19   ar
    22    19    20   ar
    23    20    21   ar
    24    21    22    1
    25    21    23   ar
    26    23    24   ar
    27    24    25    1
    28    14    15    1
    29    15    16    1
    30     7     8    1
    31     8     9    1
    32    33    34   ar
    33    34    35   ar
    34    35    30   ar
    35     9     4    1
    36    16    11    1
    37    24    18   ar
    38     1    10    1
@<TRIPOS>MOLECULE
*****
 35 38 0 0 0
SMALL
GASTEIGER

@<TRIPOS>ATOM
      1 N         140.2263  144.6190  155.8178 N.am    1  UNL1       -0.1691
      2 C         141.6434  144.1573  155.6492 C.2     1  UNL1        0.3226
      3 O         142.7210  145.1477  155.3205 O.2     1  UNL1       -0.2510
      4 N         141.9831  142.7050  155.8093 N.am    1  UNL1       -0.2629
      5 C         140.9057  141.7146  156.1380 C.3     1  UNL1        0.0964
      6 C         141.2454  140.2623  156.2981 C.3     1  UNL1        0.0376
      7 C         142.6625  139.8006  156.1295 C.3     1  UNL1        0.0609
      8 C         143.7401  140.7910  155.8007 C.3     1  UNL1        0.0376
      9 C         143.4004  142.2433  155.6407 C.3     1  UNL1        0.0964
     10 H         139.5191  143.9689  156.0335 H       1  UNL1        0.1781
     11 N         143.0022  138.3483  156.2895 N.3     1  UNL1       -0.2736
     12 C         143.8672  137.6639  155.2730 C.3     1  UNL1        0.0758
     13 C         144.2069  136.2117  155.4331 C.3     1  UNL1        0.0609
     14 C         143.6817  135.4439  156.6097 C.3     1  UNL1        0.1687
     15 C         142.8167  136.1283  157.6263 C.3     1  UNL1        0.0609
     16 C         142.4770  137.5805  157.4663 C.3     1  UNL1        0.0758
     17 O         144.0214  133.9916  156.7698 O.3     1  UNL1       -0.4794
     18 C         143.1042  132.9415  156.2167 C.ar    1  UNL1        0.1344
     19 C         141.9780  133.3331  155.3067 C.ar    1  UNL1        0.0374
     20 C         141.0608  132.2829  154.7535 C.ar    1  UNL1        0.0145
     21 C         141.2699  130.8411  155.1104 C.ar    1  UNL1        0.0576
     22 CL        140.3528  129.7909  154.5573 Cl      1  UNL1       -0.0823
     23 C         142.3962  130.4495  156.0205 C.ar    1  UNL1        0.0101
     24 C         143.3133  131.4996  156.5736 C.ar    1  UNL1        0.0129
     25 C         144.4395  131.1080  157.4836 C.3     1  UNL1        0.0342
     26 S         139.8866  146.0712  155.6577 S.O2    1  UNL1        0.0768
     27 O         139.8997  146.2386  157.1483 O.2     1  UNL1       -0.1498
     28 O         139.8735  145.9039  154.1672 O.2     1  UNL1       -0.1498
     29 C         138.5278  151.8802  155.0174 C.3     1  UNL1        0.0310
     30 C         138.8675  150.4279  155.1775 C.ar    1  UNL1       -0.0218
     31 C         138.4336  149.6874  156.4076 C.ar    1  UNL1       -0.0029
     32 C         138.7733  148.2352  156.5677 C.ar    1  UNL1        0.0199
     33 C         139.5469  147.5235  155.4976 C.ar    1  UNL1        0.1253
     34 C         139.9808  148.2640  154.2675 C.ar    1  UNL1        0.0199
     35 C         139.6411  149.7163  154.1074 C.ar    1  UNL1       -0.0029
@<TRIPOS>BOND
     1    29    30    1
     2    30    31   ar
     3    31    32   ar
     4    32    33   ar
     5    33    26    1
     6    26    27    2
     7    26    28    2
     8    26     1    1
     9     1     2   am
    10     2     3    2
    11     2     4   am
    12     4     5    1
    13     5     6    1
    14     6     7    1
    15     7    11    1
    16    11    12    1
    17    12    13    1
    18    13    14    1
    19    14    17    1
    20    17    18    1
    21    18    19   ar
    22    19    20   ar
    23    20    21   ar
    24    21    22    1
    25    21    23   ar
    26    23    24   ar
    27    24    25    1
    28    14    15    1
    29    15    16    1
    30     7     8    1
    31     8     9    1
    32    33    34   ar
    33    34    35   ar
    34    35    30   ar
    35     9     4    1
    36    16    11    1
    37    24    18   ar
    38     1    10    1
@<TRIPOS>MOLECULE
*****
 35 38 0 0 0
SMALL
GASTEIGER

@<TRIPOS>ATOM
      1 N         140.3055  145.3089  155.0554 N.am    1  UNL1       -0.1691
      2 C         141.4267  144.8528  155.9412 C.2     1  UNL1        0.3226
      3 O         142.1696  145.8474  156.7832 O.2     1  UNL1       -0.2510
      4 N         141.8050  143.4019  155.9852 N.am    1  UNL1       -0.2629
      5 C         141.0622  142.4073  155.1434 C.3     1  UNL1        0.0964
      6 C         141.4405  140.9564  155.1873 C.3     1  UNL1        0.0376
      7 C         142.5617  140.5003  156.0732 C.3     1  UNL1        0.0609
      8 C         143.3047  141.4949  156.9151 C.3     1  UNL1        0.0376
      9 C         142.9263  142.9458  156.8711 C.3     1  UNL1        0.0964
     10 H         139.8179  144.6561  154.5028 H       1  UNL1        0.1781
     11 N         142.9401  139.0494  156.1171 N.3     1  UNL1       -0.2736
     12 C         142.2627  138.1267  157.0865 C.3     1  UNL1        0.0758
     13 C         142.6410  136.6759  157.1305 C.3     1  UNL1        0.0609
     14 C         143.6968  136.1478  156.2051 C.3     1  UNL1        0.1687
     15 C         144.3743  137.0705  155.2357 C.3     1  UNL1        0.0609
     16 C         143.9960  138.5213  155.1917 C.3     1  UNL1        0.0758
     17 O         144.0752  134.6969  156.2491 O.3     1  UNL1       -0.4794
     18 C         143.1223  133.6575  155.7377 C.ar    1  UNL1        0.1344
     19 C         142.1499  134.0024  154.6490 C.ar    1  UNL1        0.0374
     20 C         141.1969  132.9629  154.1375 C.ar    1  UNL1        0.0145
     21 C         141.2164  131.5786  154.7149 C.ar    1  UNL1        0.0576
     22 CL        140.2635  130.5392  154.2035 Cl      1  UNL1       -0.0823
     23 C         142.1889  131.2338  155.8037 C.ar    1  UNL1        0.0101
     24 C         143.1418  132.2732  156.3151 C.ar    1  UNL1        0.0129
     25 C         144.1142  131.9284  157.4038 C.3     1  UNL1        0.0342
     26 S         139.9271  146.7598  155.0114 S.O2    1  UNL1        0.0768
     27 O         140.8373  146.9615  153.8363 O.2     1  UNL1       -0.1498
     28 O         139.0169  146.5580  156.1865 O.2     1  UNL1       -0.1498
     29 C         138.4137  152.5631  154.8355 C.3     1  UNL1        0.0310
     30 C         138.7920  151.1122  154.8795 C.ar    1  UNL1       -0.0218
     31 C         138.3314  150.2512  156.0180 C.ar    1  UNL1       -0.0029
     32 C         138.7097  148.8004  156.0620 C.ar    1  UNL1        0.0199
     33 C         139.5487  148.2106  154.9674 C.ar    1  UNL1        0.1253
     34 C         140.0094  149.0716  153.8289 C.ar    1  UNL1        0.0199
     35 C         139.6310  150.5224  153.7849 C.ar    1  UNL1       -0.0029
@<TRIPOS>BOND
     1    29    30    1
     2    30    31   ar
     3    31    32   ar
     4    32    33   ar
     5    33    26    1
     6    26    27    2
     7    26    28    2
     8    26     1    1
     9     1     2   am
    10     2     3    2
    11     2     4   am
    12     4     5    1
    13     5     6    1
    14     6     7    1
    15     7    11    1
    16    11    12    1
    17    12    13    1
    18    13    14    1
    19    14    17    1
    20    17    18    1
    21    18    19   ar
    22    19    20   ar
    23    20    21   ar
    24    21    22    1
    25    21    23   ar
    26    23    24   ar
    27    24    25    1
    28    14    15    1
    29    15    16    1
    30     7     8    1
    31     8     9    1
    32    33    34   ar
    33    34    35   ar
    34    35    30   ar
    35     9     4    1
    36    16    11    1
    37    24    18   ar
    38     1    10    1
@<TRIPOS>MOLECULE
*****
 35 38 0 0 0
SMALL
GASTEIGER

@<TRIPOS>ATOM
      1 N         141.0405  139.8224  164.3876 N.am    1  UNL1       -0.1691
      2 C         140.3317  140.3215  163.1635 C.2     1  UNL1        0.3226
      3 O         139.3248  141.4274  163.2785 O.2     1  UNL1       -0.2510
      4 N         140.6297  139.7147  161.8245 N.am    1  UNL1       -0.2629
      5 C         141.6366  138.6089  161.7096 C.3     1  UNL1        0.0964
      6 C         141.9346  138.0021  160.3705 C.3     1  UNL1        0.0376
      7 C         141.2258  138.5012  159.1464 C.3     1  UNL1        0.0609
      8 C         140.2189  139.6072  159.2613 C.3     1  UNL1        0.0376
      9 C         139.9209  140.2139  160.6004 C.3     1  UNL1        0.0964
     10 H         141.7013  139.0965  164.3122 H       1  UNL1        0.1781
     11 N         141.5238  137.8945  157.8074 N.3     1  UNL1       -0.2736
     12 C         140.4006  137.4419  156.9223 C.3     1  UNL1        0.0758
     13 C         140.6986  136.8351  155.5833 C.3     1  UNL1        0.0609
     14 C         142.1199  136.6809  155.1293 C.3     1  UNL1        0.1687
     15 C         143.2433  137.1335  156.0144 C.3     1  UNL1        0.0609
     16 C         142.9452  137.7403  157.3535 C.3     1  UNL1        0.0758
     17 O         142.4179  136.0742  153.7903 O.3     1  UNL1       -0.4794
     18 C         141.8162  134.7524  153.4151 C.ar    1  UNL1        0.1344
     19 C         140.7688  134.6823  152.3437 C.ar    1  UNL1        0.0374
     20 C         140.1670  133.3605  151.9685 C.ar    1  UNL1        0.0145
     21 C         140.6126  132.1088  152.6648 C.ar    1  UNL1        0.0576
     22 CL        140.0109  130.7871  152.2896 Cl      1  UNL1       -0.0823
     23 C         141.6601  132.1790  153.7363 C.ar    1  UNL1        0.0101
     24 C         142.2618  133.5008  154.1114 C.ar    1  UNL1        0.0129
     25 C         143.3092  133.5709  155.1829 C.3     1  UNL1        0.0342
     26 S         140.7425  140.4291  165.7267 S.O2    1  UNL1        0.0768
     27 O         139.6362  139.4368  165.9301 O.2     1  UNL1       -0.1498
     28 O         141.8488  141.4215  165.5232 O.2     1  UNL1       -0.1498
     29 C         139.5503  142.8562  171.0828 C.3     1  UNL1        0.0310
     30 C         139.8484  142.2494  169.7438 C.ar    1  UNL1       -0.0218
     31 C         140.4271  143.0957  168.6489 C.ar    1  UNL1       -0.0029
     32 C         140.7252  142.4890  167.3099 C.ar    1  UNL1        0.0199
     33 C         140.4444  141.0359  167.0657 C.ar    1  UNL1        0.1253
     34 C         139.8657  140.1896  168.1605 C.ar    1  UNL1        0.0199
     35 C         139.5676  140.7963  169.4996 C.ar    1  UNL1       -0.0029
@<TRIPOS>BOND
     1    29    30    1
     2    30    31   ar
     3    31    32   ar
     4    32    33   ar
     5    33    26    1
     6    26    27    2
     7    26    28    2
     8    26     1    1
     9     1     2   am
    10     2     3    2
    11     2     4   am
    12     4     5    1
    13     5     6    1
    14     6     7    1
    15     7    11    1
    16    11    12    1
    17    12    13    1
    18    13    14    1
    19    14    17    1
    20    17    18    1
    21    18    19   ar
    22    19    20   ar
    23    20    21   ar
    24    21    22    1
    25    21    23   ar
    26    23    24   ar
    27    24    25    1
    28    14    15    1
    29    15    16    1
    30     7     8    1
    31     8     9    1
    32    33    34   ar
    33    34    35   ar
    34    35    30   ar
    35     9     4    1
    36    16    11    1
    37    24    18   ar
    38     1    10    1
@<TRIPOS>MOLECULE
*****
 35 38 0 0 0
SMALL
GASTEIGER

@<TRIPOS>ATOM
      1 N         142.5293  140.5105  163.9047 N.am    1  UNL1       -0.1691
      2 C         142.2349  141.7590  163.1272 C.2     1  UNL1        0.3226
      3 O         141.4571  142.8728  163.7633 O.2     1  UNL1       -0.2510
      4 N         142.7183  141.8938  161.7137 N.am    1  UNL1       -0.2629
      5 C         143.4961  140.7801  161.0776 C.3     1  UNL1        0.0964
      6 C         143.9795  140.9149  159.6640 C.3     1  UNL1        0.0376
      7 C         143.6851  142.1634  158.8865 C.3     1  UNL1        0.0609
      8 C         142.9073  143.2772  159.5226 C.3     1  UNL1        0.0376
      9 C         142.4239  143.1424  160.9362 C.3     1  UNL1        0.0964
     10 H         143.0398  139.7795  163.4872 H       1  UNL1        0.1781
     11 N         144.1684  142.2982  157.4730 N.3     1  UNL1       -0.2736
     12 C         145.5889  141.9590  157.1305 C.3     1  UNL1        0.0758
     13 C         146.0722  142.0938  155.7169 C.3     1  UNL1        0.0609
     14 C         145.1352  142.5678  154.6458 C.3     1  UNL1        0.1687
     15 C         143.7147  142.9071  154.9883 C.3     1  UNL1        0.0609
     16 C         143.2313  142.7723  156.4019 C.3     1  UNL1        0.0758
     17 O         145.6186  142.7027  153.2323 O.3     1  UNL1       -0.4794
     18 C         147.0843  142.6070  152.9285 C.ar    1  UNL1        0.1344
     19 C         147.6769  141.2984  152.4967 C.ar    1  UNL1        0.0374
     20 C         149.1428  141.2028  152.1930 C.ar    1  UNL1        0.0145
     21 C         150.0160  142.4157  152.3210 C.ar    1  UNL1        0.0576
     22 CL        151.4817  142.3200  152.0172 Cl      1  UNL1       -0.0823
     23 C         149.4233  143.7243  152.7528 C.ar    1  UNL1        0.0101
     24 C         147.9575  143.8199  153.0565 C.ar    1  UNL1        0.0129
     25 C         147.3649  145.1285  153.4883 C.3     1  UNL1        0.0342
     26 S         142.0460  140.3757  165.3183 S.O2    1  UNL1        0.0768
     27 O         143.3082  141.0190  165.8112 O.2     1  UNL1       -0.1498
     28 O         140.7838  139.7324  164.8253 O.2     1  UNL1       -0.1498
     29 C         140.1125  139.8365  170.9725 C.3     1  UNL1        0.0310
     30 C         140.5958  139.9713  169.5590 C.ar    1  UNL1       -0.0218
     31 C         139.6468  140.4000  168.4795 C.ar    1  UNL1       -0.0029
     32 C         140.1301  140.5348  167.0659 C.ar    1  UNL1        0.0199
     33 C         141.5626  140.2409  166.7318 C.ar    1  UNL1        0.1253
     34 C         142.5117  139.8121  167.8113 C.ar    1  UNL1        0.0199
     35 C         142.0283  139.6773  169.2249 C.ar    1  UNL1       -0.0029
@<TRIPOS>BOND
     1    29    30    1
     2    30    31   ar
     3    31    32   ar
     4    32    33   ar
     5    33    26    1
     6    26    27    2
     7    26    28    2
     8    26     1    1
     9     1     2   am
    10     2     3    2
    11     2     4   am
    12     4     5    1
    13     5     6    1
    14     6     7    1
    15     7    11    1
    16    11    12    1
    17    12    13    1
    18    13    14    1
    19    14    17    1
    20    17    18    1
    21    18    19   ar
    22    19    20   ar
    23    20    21   ar
    24    21    22    1
    25    21    23   ar
    26    23    24   ar
    27    24    25    1
    28    14    15    1
    29    15    16    1
    30     7     8    1
    31     8     9    1
    32    33    34   ar
    33    34    35   ar
    34    35    30   ar
    35     9     4    1
    36    16    11    1
    37    24    18   ar
    38     1    10    1
@<TRIPOS>MOLECULE
*****
 35 38 0 0 0
SMALL
GASTEIGER

@<TRIPOS>ATOM
      1 N         140.2717  145.4052  154.9023 N.am    1  UNL1       -0.1691
      2 C         139.2121  144.3821  154.6186 C.2     1  UNL1        0.3226
      3 O         137.7950  144.8149  154.3849 O.2     1  UNL1       -0.2510
      4 N         139.5696  142.9261  154.5686 N.am    1  UNL1       -0.2629
      5 C         140.9866  142.4933  154.8023 C.3     1  UNL1        0.0964
      6 C         141.3440  141.0374  154.7522 C.3     1  UNL1        0.0376
      7 C         140.2845  140.0143  154.4686 C.3     1  UNL1        0.0609
      8 C         138.8673  140.4471  154.2349 C.3     1  UNL1        0.0376
      9 C         138.5099  141.9030  154.2849 C.3     1  UNL1        0.0964
     10 H         141.2018  145.1211  155.0556 H       1  UNL1        0.1781
     11 N         140.6419  138.5584  154.4186 N.3     1  UNL1       -0.2736
     12 C         141.8098  138.1006  153.5961 C.3     1  UNL1        0.0758
     13 C         142.1673  136.6447  153.5461 C.3     1  UNL1        0.0609
     14 C         141.3568  135.6465  154.3185 C.3     1  UNL1        0.1687
     15 C         140.1888  136.1042  155.1410 C.3     1  UNL1        0.0609
     16 C         139.8314  137.5601  155.1910 C.3     1  UNL1        0.0758
     17 O         141.7142  134.1906  154.2685 O.3     1  UNL1       -0.4794
     18 C         142.6861  133.6224  155.2598 C.ar    1  UNL1        0.1344
     19 C         142.9154  134.3183  156.5686 C.ar    1  UNL1        0.0374
     20 C         143.8873  133.7501  157.5600 C.ar    1  UNL1        0.0145
     21 C         144.6298  132.4861  157.2424 C.ar    1  UNL1        0.0576
     22 CL        145.6017  131.9180  158.2337 Cl      1  UNL1       -0.0823
     23 C         144.4005  131.7902  155.9335 C.ar    1  UNL1        0.0101
     24 C         143.4286  132.3584  154.9422 C.ar    1  UNL1        0.0129
     25 C         143.1993  131.6625  153.6334 C.3     1  UNL1        0.0342
     26 S         139.9143  146.8611  154.9523 S.O2    1  UNL1        0.0768
     27 O         139.4351  146.6950  156.3640 O.2     1  UNL1       -0.1498
     28 O         140.3934  147.0272  153.5406 O.2     1  UNL1       -0.1498
     29 C         138.4845  152.6848  155.1523 C.3     1  UNL1        0.0310
     30 C         138.8419  151.2289  155.1023 C.ar    1  UNL1       -0.0218
     31 C         138.4036  150.3107  156.2044 C.ar    1  UNL1       -0.0029
     32 C         138.7610  148.8548  156.1544 C.ar    1  UNL1        0.0199
     33 C         139.5568  148.3170  155.0023 C.ar    1  UNL1        0.1253
     34 C         139.9952  149.2352  153.9001 C.ar    1  UNL1        0.0199
     35 C         139.6377  150.6911  153.9502 C.ar    1  UNL1       -0.0029
@<TRIPOS>BOND
     1    29    30    1
     2    30    31   ar
     3    31    32   ar
     4    32    33   ar
     5    33    26    1
     6    26    27    2
     7    26    28    2
     8    26     1    1
     9     1     2   am
    10     2     3    2
    11     2     4   am
    12     4     5    1
    13     5     6    1
    14     6     7    1
    15     7    11    1
    16    11    12    1
    17    12    13    1
    18    13    14    1
    19    14    17    1
    20    17    18    1
    21    18    19   ar
    22    19    20   ar
    23    20    21   ar
    24    21    22    1
    25    21    23   ar
    26    23    24   ar
    27    24    25    1
    28    14    15    1
    29    15    16    1
    30     7     8    1
    31     8     9    1
    32    33    34   ar
    33    34    35   ar
    34    35    30   ar
    35     9     4    1
    36    16    11    1
    37    24    18   ar
    38     1    10    1
@<TRIPOS>MOLECULE
*****
 35 38 0 0 0
SMALL
GASTEIGER

@<TRIPOS>ATOM
      1 N         142.0811  141.7643  164.2086 N.am    1  UNL1       -0.1691
      2 C         141.6245  141.0975  162.9450 C.2     1  UNL1        0.3226
      3 O         141.4008  139.6144  162.9181 O.2     1  UNL1       -0.2510
      4 N         141.3916  141.9136  161.7082 N.am    1  UNL1       -0.2629
      5 C         141.6153  143.3966  161.7351 C.3     1  UNL1        0.0964
      6 C         141.3824  144.2127  160.4983 C.3     1  UNL1        0.0376
      7 C         140.9259  143.5459  159.2346 C.3     1  UNL1        0.0609
      8 C         140.7021  142.0629  159.2077 C.3     1  UNL1        0.0376
      9 C         140.9350  141.2468  160.4445 C.3     1  UNL1        0.0964
     10 H         142.2279  142.7376  164.2263 H       1  UNL1        0.1781
     11 N         140.6930  144.3621  157.9978 N.3     1  UNL1       -0.2736
     12 C         139.4414  144.1662  157.1946 C.3     1  UNL1        0.0758
     13 C         139.2085  144.9824  155.9578 C.3     1  UNL1        0.0609
     14 C         140.2272  145.9944  155.5242 C.3     1  UNL1        0.1687
     15 C         141.4789  146.1903  156.3274 C.3     1  UNL1        0.0609
     16 C         141.7117  145.3742  157.5642 C.3     1  UNL1        0.0758
     17 O         139.9943  146.8106  154.2874 O.3     1  UNL1       -0.4794
     18 C         139.6148  148.2571  154.4038 C.ar    1  UNL1        0.1344
     19 C         138.8585  148.7396  155.6059 C.ar    1  UNL1        0.0374
     20 C         138.4789  150.1861  155.7223 C.ar    1  UNL1        0.0145
     21 C         138.8558  151.1501  154.6366 C.ar    1  UNL1        0.0576
     22 CL        138.4763  152.5966  154.7530 Cl      1  UNL1       -0.0823
     23 C         139.6122  150.6675  153.4345 C.ar    1  UNL1        0.0101
     24 C         139.9917  149.2210  153.3181 C.ar    1  UNL1        0.0129
     25 C         140.7481  148.7385  152.1160 C.3     1  UNL1        0.0342
     26 S         142.3140  140.9481  165.4454 S.O2    1  UNL1        0.0768
     27 O         140.8925  141.1788  165.8653 O.2     1  UNL1       -0.1498
     28 O         143.7354  140.7174  165.0255 O.2     1  UNL1       -0.1498
     29 C         143.2455  137.6835  170.3926 C.3     1  UNL1        0.0310
     30 C         143.0126  138.4997  169.1558 C.ar    1  UNL1       -0.0218
     31 C         143.5604  138.0376  167.8381 C.ar    1  UNL1       -0.0029
     32 C         143.3275  138.8537  166.6013 C.ar    1  UNL1        0.0199
     33 C         142.5468  140.1320  166.6822 C.ar    1  UNL1        0.1253
     34 C         141.9990  140.5940  167.9999 C.ar    1  UNL1        0.0199
     35 C         142.2319  139.7779  169.2367 C.ar    1  UNL1       -0.0029
@<TRIPOS>BOND
     1    29    30    1
     2    30    31   ar
     3    31    32   ar
     4    32    33   ar
     5    33    26    1
     6    26    27    2
     7    26    28    2
     8    26     1    1
     9     1     2   am
    10     2     3    2
    11     2     4   am
    12     4     5    1
    13     5     6    1
    14     6     7    1
    15     7    11    1
    16    11    12    1
    17    12    13    1
    18    13    14    1
    19    14    17    1
    20    17    18    1
    21    18    19   ar
    22    19    20   ar
    23    20    21   ar
    24    21    22    1
    25    21    23   ar
    26    23    24   ar
    27    24    25    1
    28    14    15    1
    29    15    16    1
    30     7     8    1
    31     8     9    1
    32    33    34   ar
    33    34    35   ar
    34    35    30   ar
    35     9     4    1
    36    16    11    1
    37    24    18   ar
    38     1    10    1
@<TRIPOS>MOLECULE
*****
 35 38 0 0 0
SMALL
GASTEIGER

@<TRIPOS>ATOM
      1 N         142.1069  142.9296  164.3438 N.am    1  UNL1       -0.1691
      2 C         141.4109  142.1527  163.2659 C.2     1  UNL1        0.3226
      3 O         140.9308  140.7577  163.5375 O.2     1  UNL1       -0.2510
      4 N         141.1949  142.7708  161.9163 N.am    1  UNL1       -0.2629
      5 C         141.6749  144.1656  161.6447 C.3     1  UNL1        0.0964
      6 C         141.4589  144.7837  160.2951 C.3     1  UNL1        0.0376
      7 C         140.7629  144.0068  159.2171 C.3     1  UNL1        0.0609
      8 C         140.2829  142.6119  159.4887 C.3     1  UNL1        0.0376
      9 C         140.4988  141.9938  160.8383 C.3     1  UNL1        0.0964
     10 H         142.4219  143.8451  164.1656 H       1  UNL1        0.1781
     11 N         140.5469  144.6249  157.8676 N.3     1  UNL1       -0.2736
     12 C         141.5388  145.6118  157.3272 C.3     1  UNL1        0.0758
     13 C         141.3228  146.2299  155.9776 C.3     1  UNL1        0.0609
     14 C         140.1149  145.8610  155.1684 C.3     1  UNL1        0.1687
     15 C         139.1230  144.8740  155.7087 C.3     1  UNL1        0.0609
     16 C         139.3390  144.2559  157.0583 C.3     1  UNL1        0.0758
     17 O         139.8989  146.4790  153.8188 O.3     1  UNL1       -0.4794
     18 C         140.4277  147.8526  153.5296 C.ar    1  UNL1        0.1344
     19 C         141.4808  148.0449  152.4789 C.ar    1  UNL1        0.0374
     20 C         142.0096  149.4185  152.1896 C.ar    1  UNL1        0.0145
     21 C         141.4854  150.5997  152.9512 C.ar    1  UNL1        0.0576
     22 CL        142.0141  151.9733  152.6620 Cl      1  UNL1       -0.0823
     23 C         140.4322  150.4073  154.0019 C.ar    1  UNL1        0.0101
     24 C         139.9035  149.0338  154.2911 C.ar    1  UNL1        0.0129
     25 C         138.8504  148.8414  155.3418 C.3     1  UNL1        0.0342
     26 S         142.3229  142.3115  165.6934 S.O2    1  UNL1        0.0768
     27 O         143.6884  141.8597  165.2679 O.2     1  UNL1       -0.1498
     28 O         140.9573  142.7634  166.1189 O.2     1  UNL1       -0.1498
     29 C         143.1868  139.8394  171.0918 C.3     1  UNL1        0.0310
     30 C         142.9708  140.4574  169.7422 C.ar    1  UNL1       -0.0218
     31 C         142.3761  139.6438  168.6312 C.ar    1  UNL1       -0.0029
     32 C         142.1601  140.2619  167.2816 C.ar    1  UNL1        0.0199
     33 C         142.5389  141.6935  167.0430 C.ar    1  UNL1        0.1253
     34 C         143.1336  142.5071  168.1540 C.ar    1  UNL1        0.0199
     35 C         143.3496  141.8890  169.5036 C.ar    1  UNL1       -0.0029
@<TRIPOS>BOND
     1    29    30    1
     2    30    31   ar
     3    31    32   ar
     4    32    33   ar
     5    33    26    1
     6    26    27    2
     7    26    28    2
     8    26     1    1
     9     1     2   am
    10     2     3    2
    11     2     4   am
    12     4     5    1
    13     5     6    1
    14     6     7    1
    15     7    11    1
    16    11    12    1
    17    12    13    1
    18    13    14    1
    19    14    17    1
    20    17    18    1
    21    18    19   ar
    22    19    20   ar
    23    20    21   ar
    24    21    22    1
    25    21    23   ar
    26    23    24   ar
    27    24    25    1
    28    14    15    1
    29    15    16    1
    30     7     8    1
    31     8     9    1
    32    33    34   ar
    33    34    35   ar
    34    35    30   ar
    35     9     4    1
    36    16    11    1
    37    24    18   ar
    38     1    10    1
@<TRIPOS>MOLECULE
*****
 35 38 0 0 0
SMALL
GASTEIGER

@<TRIPOS>ATOM
      1 N         141.6042  142.9126  164.5543 N.am    1  UNL1       -0.1691
      2 C         142.2477  142.4320  163.2875 C.2     1  UNL1        0.3226
      3 O         143.2300  141.2990  163.3282 O.2     1  UNL1       -0.2510
      4 N         141.9090  143.0843  161.9799 N.am    1  UNL1       -0.2629
      5 C         140.9267  144.2172  161.9392 C.3     1  UNL1        0.0964
      6 C         140.5880  144.8695  160.6316 C.3     1  UNL1        0.0376
      7 C         141.2315  144.3889  159.3648 C.3     1  UNL1        0.0609
      8 C         142.2138  143.2560  159.4055 C.3     1  UNL1        0.0376
      9 C         142.5525  142.6037  160.7130 C.3     1  UNL1        0.0964
     10 H         140.9595  143.6562  164.5276 H       1  UNL1        0.1781
     11 N         140.8928  145.0413  158.0572 N.3     1  UNL1       -0.2736
     12 C         141.9149  145.8823  157.3516 C.3     1  UNL1        0.0758
     13 C         141.5762  146.5346  156.0440 C.3     1  UNL1        0.0609
     14 C         140.2153  146.3459  155.4420 C.3     1  UNL1        0.1687
     15 C         139.1931  145.5048  156.1476 C.3     1  UNL1        0.0609
     16 C         139.5318  144.8525  157.4552 C.3     1  UNL1        0.0758
     17 O         139.8766  146.9982  154.1345 O.3     1  UNL1       -0.4794
     18 C         139.7876  148.4927  154.0427 C.ar    1  UNL1        0.1344
     19 C         138.9507  149.2559  155.0261 C.ar    1  UNL1        0.0374
     20 C         138.8616  150.7505  154.9344 C.ar    1  UNL1        0.0145
     21 C         139.6095  151.4818  153.8593 C.ar    1  UNL1        0.0576
     22 CL        139.5205  152.9764  153.7676 Cl      1  UNL1       -0.0823
     23 C         140.4465  150.7186  152.8759 C.ar    1  UNL1        0.0101
     24 C         140.5355  149.2240  152.9677 C.ar    1  UNL1        0.0129
     25 C         141.3724  148.4608  151.9843 C.3     1  UNL1        0.0342
     26 S         141.9429  142.2603  165.8619 S.O2    1  UNL1        0.0768
     27 O         143.2119  143.0571  165.9307 O.2     1  UNL1       -0.1498
     28 O         140.6739  141.4634  165.7931 O.2     1  UNL1       -0.1498
     29 C         143.2978  139.6510  171.0922 C.3     1  UNL1        0.0310
     30 C         142.9591  140.3033  169.7846 C.ar    1  UNL1       -0.0218
     31 C         143.3364  141.7344  169.5404 C.ar    1  UNL1       -0.0029
     32 C         142.9977  142.3867  168.2328 C.ar    1  UNL1        0.0199
     33 C         142.2816  141.6080  167.1695 C.ar    1  UNL1        0.1253
     34 C         141.9044  140.1769  167.4136 C.ar    1  UNL1        0.0199
     35 C         142.2431  139.5246  168.7212 C.ar    1  UNL1       -0.0029
@<TRIPOS>BOND
     1    29    30    1
     2    30    31   ar
     3    31    32   ar
     4    32    33   ar
     5    33    26    1
     6    26    27    2
     7    26    28    2
     8    26     1    1
     9     1     2   am
    10     2     3    2
    11     2     4   am
    12     4     5    1
    13     5     6    1
    14     6     7    1
    15     7    11    1
    16    11    12    1
    17    12    13    1
    18    13    14    1
    19    14    17    1
    20    17    18    1
    21    18    19   ar
    22    19    20   ar
    23    20    21   ar
    24    21    22    1
    25    21    23   ar
    26    23    24   ar
    27    24    25    1
    28    14    15    1
    29    15    16    1
    30     7     8    1
    31     8     9    1
    32    33    34   ar
    33    34    35   ar
    34    35    30   ar
    35     9     4    1
    36    16    11    1
    37    24    18   ar
    38     1    10    1
