@<TRIPOS>MOLECULE
*****
 30 33 0 0 0
SMALL
GASTEIGER

@<TRIPOS>ATOM
      1 C         138.1006  140.3557  162.5736 C.3     1  UNL1        0.1166
      2 N         136.8815  141.1443  162.9500 N.3     1  UNL1       -0.3162
      3 C         139.3607  139.5544  162.7164 C.3     1  UNL1        0.0739
      4 C         140.0795  139.0632  161.4950 C.3     1  UNL1        0.2039
      5 N         139.5384  139.3732  160.1307 N.pl3   1  UNL1       -0.1931
      6 C         138.2784  140.1745  159.9879 C.3     1  UNL1        0.2039
      7 C         137.5596  140.6657  161.2094 C.3     1  UNL1        0.0739
      8 H         136.8196  141.2104  163.9659 H       1  UNL1        0.1192
      9 H         136.0497  140.6778  162.5883 H       1  UNL1        0.1192
     10 C         140.2574  138.8820  158.9093 C.2     1  UNL1        0.3205
     11 N         139.5675  137.9513  157.9564 N.2     1  UNL1        0.0097
     12 C         140.2863  137.4601  156.7351 C.2     1  UNL1        0.4717
     13 N         141.6952  137.8995  156.4665 N.2     1  UNL1        0.0158
     14 C         142.3851  138.8301  157.4193 C.2     1  UNL1        0.3714
     15 N         143.7597  139.4306  157.4176 N.2     1  UNL1       -0.0339
     16 C         143.8903  140.2930  158.6379 C.2     1  UNL1        0.2323
     17 C         142.5964  140.2255  159.3939 C.2     1  UNL1        0.0486
     18 C         141.6662  139.3214  158.6407 C.3     1  UNL1        0.2428
     19 N         138.5268  139.0275  164.7654 N.am    1  UNL1       -0.3012
     20 C         138.2184  140.3195  164.0685 C.2     1  UNL1        0.2352
     21 O         138.0277  141.5752  164.8665 O.2     1  UNL1       -0.2737
     22 H         138.6520  138.2033  164.2416 H       1  UNL1        0.1497
     23 C         137.5336  138.4139  167.0864 C.3     1  UNL1        0.0262
     24 C         138.6446  138.9913  166.2604 C.3     1  UNL1        0.0942
     25 C         139.8734  139.5324  166.9292 C.ar    1  UNL1       -0.0045
     26 C         141.2018  139.4497  166.2375 C.ar    1  UNL1       -0.0027
     27 C         142.4306  139.9909  166.9064 C.ar    1  UNL1       -0.0003
     28 C         142.3308  140.6146  168.2669 C.ar    1  UNL1       -0.0000
     29 C         141.0025  140.6972  168.9586 C.ar    1  UNL1       -0.0003
     30 C         139.7736  140.1561  168.2897 C.ar    1  UNL1       -0.0027
@<TRIPOS>BOND
     1    23    24    1
     2    24    19    1
     3    19    20   am
     4    20    21    2
     5    20     1    1
     6     1     2    1
     7     1     3    1
     8     3     4    1
     9     4     5    1
    10     5    10    1
    11    10    11    2
    12    11    12    1
    13    12    13    2
    14    13    14    1
    15    14    15    2
    16    15    16    1
    17    16    17    2
    18    17    18    1
    19     5     6    1
    20     6     7    1
    21    24    25    1
    22    25    26   ar
    23    26    27   ar
    24    27    28   ar
    25    28    29   ar
    26    29    30   ar
    27     7     1    1
    28    30    25   ar
    29    18    10    1
    30    18    14    1
    31    19    22    1
    32     2     8    1
    33     2     9    1
@<TRIPOS>MOLECULE
*****
 30 33 0 0 0
SMALL
GASTEIGER

@<TRIPOS>ATOM
      1 C         139.9891  144.3416  163.4585 C.3     1  UNL1        0.1166
      2 N         139.4436  145.1238  164.6162 N.3     1  UNL1       -0.3162
      3 C         140.5746  143.2023  162.6779 C.3     1  UNL1        0.0739
      4 C         140.8558  143.3629  161.2133 C.3     1  UNL1        0.2039
      5 N         140.5516  144.6627  160.5292 N.pl3   1  UNL1       -0.1931
      6 C         139.9661  145.8020  161.3098 C.3     1  UNL1        0.2039
      7 C         139.6849  145.6414  162.7744 C.3     1  UNL1        0.0739
      8 H         139.4563  144.5434  165.4549 H       1  UNL1        0.1192
      9 H         138.4850  145.4073  164.4135 H       1  UNL1        0.1192
     10 C         140.8328  144.8232  159.0646 C.2     1  UNL1        0.3205
     11 N         141.9436  145.7220  158.6083 N.2     1  UNL1        0.0097
     12 C         142.2249  145.8825  157.1437 C.2     1  UNL1        0.4717
     13 N         141.3952  145.1442  156.1353 N.2     1  UNL1        0.0158
     14 C         140.2844  144.2455  156.5916 C.2     1  UNL1        0.3714
     15 N         139.3058  143.3962  155.8359 N.2     1  UNL1       -0.0339
     16 C         138.4198  142.7109  156.8335 C.2     1  UNL1        0.2323
     17 C         138.8507  143.1365  158.2057 C.2     1  UNL1        0.0486
     18 C         140.0032  144.0850  158.0563 C.3     1  UNL1        0.2428
     19 N         141.4566  142.8604  165.0085 N.am    1  UNL1       -0.3012
     20 C         140.1039  143.3134  164.5446 C.2     1  UNL1        0.2352
     21 O         138.8662  142.7383  165.1668 O.2     1  UNL1       -0.2737
     22 H         142.2689  143.2379  164.6001 H       1  UNL1        0.1497
     23 C         141.4684  140.3735  165.7604 C.3     1  UNL1        0.0262
     24 C         141.5714  141.8322  166.0946 C.3     1  UNL1        0.0942
     25 C         141.7894  142.2627  167.5149 C.ar    1  UNL1       -0.0045
     26 C         140.6647  142.8791  168.2927 C.ar    1  UNL1       -0.0027
     27 C         140.8826  143.3096  169.7130 C.ar    1  UNL1       -0.0003
     28 C         142.2253  143.1236  170.3554 C.ar    1  UNL1       -0.0000
     29 C         143.3500  142.5072  169.5776 C.ar    1  UNL1       -0.0003
     30 C         143.1321  142.0767  168.1572 C.ar    1  UNL1       -0.0027
@<TRIPOS>BOND
     1    23    24    1
     2    24    19    1
     3    19    20   am
     4    20    21    2
     5    20     1    1
     6     1     2    1
     7     1     3    1
     8     3     4    1
     9     4     5    1
    10     5    10    1
    11    10    11    2
    12    11    12    1
    13    12    13    2
    14    13    14    1
    15    14    15    2
    16    15    16    1
    17    16    17    2
    18    17    18    1
    19     5     6    1
    20     6     7    1
    21    24    25    1
    22    25    26   ar
    23    26    27   ar
    24    27    28   ar
    25    28    29   ar
    26    29    30   ar
    27     7     1    1
    28    30    25   ar
    29    18    10    1
    30    18    14    1
    31    19    22    1
    32     2     8    1
    33     2     9    1
@<TRIPOS>MOLECULE
*****
 30 33 0 0 0
SMALL
GASTEIGER

@<TRIPOS>ATOM
      1 C         139.8863  138.4711  162.4706 C.3     1  UNL1        0.1166
      2 N         140.6985  137.2507  162.7878 N.3     1  UNL1       -0.3162
      3 C         139.0397  139.6928  162.6731 C.3     1  UNL1        0.0739
      4 C         138.5740  140.4872  161.4892 C.3     1  UNL1        0.2039
      5 N         138.9548  140.0601  160.1025 N.pl3   1  UNL1       -0.1931
      6 C         139.8013  138.8385  159.8999 C.3     1  UNL1        0.2039
      7 C         140.2670  138.0440  161.0840 C.3     1  UNL1        0.0739
      8 H         140.7265  137.1141  163.7982 H       1  UNL1        0.1192
      9 H         141.6476  137.3727  162.4347 H       1  UNL1        0.1192
     10 C         138.4890  140.8546  158.9185 C.2     1  UNL1        0.3205
     11 N         137.3562  140.3495  158.0750 N.2     1  UNL1        0.0097
     12 C         136.8904  141.1439  156.8911 C.2     1  UNL1        0.4717
     13 N         137.5575  142.4436  156.5506 N.2     1  UNL1        0.0158
     14 C         138.6903  142.9488  157.3941 C.2     1  UNL1        0.3714
     15 N         139.5346  144.1853  157.3044 N.2     1  UNL1       -0.0339
     16 C         140.5222  144.1550  158.4330 C.2     1  UNL1        0.2323
     17 C         140.2883  142.8998  159.2201 C.2     1  UNL1        0.0486
     18 C         139.1560  142.1543  158.5781 C.3     1  UNL1        0.2428
     19 N         138.5863  139.0717  164.6383 N.am    1  UNL1       -0.3012
     20 C         139.7876  138.4744  163.9673 C.2     1  UNL1        0.2352
     21 O         140.8900  137.8805  164.7930 O.2     1  UNL1       -0.2737
     22 H         137.8627  139.4615  164.0963 H       1  UNL1        0.1497
     23 C         137.6813  138.0220  166.8358 C.3     1  UNL1        0.0262
     24 C         138.4875  139.0751  166.1350 C.3     1  UNL1        0.0942
     25 C         139.1949  140.1315  166.9310 C.ar    1  UNL1       -0.0045
     26 C         139.7701  141.3321  166.2397 C.ar    1  UNL1       -0.0027
     27 C         140.4775  142.3885  167.0356 C.ar    1  UNL1       -0.0003
     28 C         140.6097  142.2443  168.5228 C.ar    1  UNL1       -0.0000
     29 C         140.0345  141.0439  169.2141 C.ar    1  UNL1       -0.0003
     30 C         139.3270  139.9874  168.4182 C.ar    1  UNL1       -0.0027
@<TRIPOS>BOND
     1    23    24    1
     2    24    19    1
     3    19    20   am
     4    20    21    2
     5    20     1    1
     6     1     2    1
     7     1     3    1
     8     3     4    1
     9     4     5    1
    10     5    10    1
    11    10    11    2
    12    11    12    1
    13    12    13    2
    14    13    14    1
    15    14    15    2
    16    15    16    1
    17    16    17    2
    18    17    18    1
    19     5     6    1
    20     6     7    1
    21    24    25    1
    22    25    26   ar
    23    26    27   ar
    24    27    28   ar
    25    28    29   ar
    26    29    30   ar
    27     7     1    1
    28    30    25   ar
    29    18    10    1
    30    18    14    1
    31    19    22    1
    32     2     8    1
    33     2     9    1
@<TRIPOS>MOLECULE
*****
 30 33 0 0 0
SMALL
GASTEIGER

@<TRIPOS>ATOM
      1 C         139.5792  144.2936  162.0020 C.3     1  UNL1        0.1166
      2 N         139.2076  145.7072  161.6652 N.3     1  UNL1       -0.3162
      3 C         140.1620  142.9183  161.8642 C.3     1  UNL1        0.0739
      4 C         140.0076  141.9234  162.9761 C.3     1  UNL1        0.2039
      5 N         139.2703  142.3038  164.2259 N.pl3   1  UNL1       -0.1931
      6 C         138.6875  143.6790  164.3637 C.3     1  UNL1        0.2039
      7 C         138.8419  144.6739  163.2517 C.3     1  UNL1        0.0739
      8 H         139.5613  145.9398  160.7372 H       1  UNL1        0.1192
      9 H         139.6165  146.3394  162.3533 H       1  UNL1        0.1192
     10 C         139.1159  141.3089  165.3378 C.2     1  UNL1        0.3205
     11 N         138.2098  140.1260  165.1653 N.2     1  UNL1        0.0097
     12 C         138.0553  139.1311  166.2771 C.2     1  UNL1        0.4717
     13 N         138.8070  139.3190  167.5616 N.2     1  UNL1        0.0158
     14 C         139.7132  140.5019  167.7340 C.2     1  UNL1        0.3714
     15 N         140.5757  140.9471  168.8776 N.2     1  UNL1       -0.0339
     16 C         141.2632  142.2172  168.4724 C.2     1  UNL1        0.2323
     17 C         140.8256  142.5570  167.0785 C.2     1  UNL1        0.0486
     18 C         139.8676  141.4968  166.6221 C.3     1  UNL1        0.2428
     19 N         139.5615  143.6873  159.4758 N.am    1  UNL1       -0.3012
     20 C         140.1874  144.4041  160.6353 C.2     1  UNL1        0.2352
     21 O         141.4214  145.2313  160.4282 O.2     1  UNL1       -0.2737
     22 H         138.7516  143.1444  159.6117 H       1  UNL1        0.1497
     23 C         141.3429  142.9396  157.7386 C.3     1  UNL1        0.0262
     24 C         140.1697  143.7978  158.1090 C.3     1  UNL1        0.0942
     25 C         139.6048  144.7665  157.1128 C.ar    1  UNL1       -0.0045
     26 C         138.6732  144.2825  156.0413 C.ar    1  UNL1       -0.0027
     27 C         138.1082  145.2512  155.0451 C.ar    1  UNL1       -0.0003
     28 C         138.4748  146.7037  155.1203 C.ar    1  UNL1       -0.0000
     29 C         139.4063  147.1877  156.1918 C.ar    1  UNL1       -0.0003
     30 C         139.9714  146.2190  157.1881 C.ar    1  UNL1       -0.0027
@<TRIPOS>BOND
     1    23    24    1
     2    24    19    1
     3    19    20   am
     4    20    21    2
     5    20     1    1
     6     1     2    1
     7     1     3    1
     8     3     4    1
     9     4     5    1
    10     5    10    1
    11    10    11    2
    12    11    12    1
    13    12    13    2
    14    13    14    1
    15    14    15    2
    16    15    16    1
    17    16    17    2
    18    17    18    1
    19     5     6    1
    20     6     7    1
    21    24    25    1
    22    25    26   ar
    23    26    27   ar
    24    27    28   ar
    25    28    29   ar
    26    29    30   ar
    27     7     1    1
    28    30    25   ar
    29    18    10    1
    30    18    14    1
    31    19    22    1
    32     2     8    1
    33     2     9    1
@<TRIPOS>MOLECULE
*****
 30 33 0 0 0
SMALL
GASTEIGER

@<TRIPOS>ATOM
      1 C         139.9159  138.6302  162.4787 C.3     1  UNL1        0.1166
      2 N         138.8248  137.6013  162.4522 N.3     1  UNL1       -0.3162
      3 C         140.9290  139.5969  163.0165 C.3     1  UNL1        0.0739
      4 C         141.7880  140.3854  162.0730 C.3     1  UNL1        0.2039
      5 N         141.6340  140.2072  160.5915 N.pl3   1  UNL1       -0.1931
      6 C         140.6209  139.2405  160.0537 C.3     1  UNL1        0.2039
      7 C         139.7619  138.4520  160.9973 C.3     1  UNL1        0.0739
      8 H         138.5543  137.3678  163.4075 H       1  UNL1        0.1192
      9 H         139.1601  136.7623  161.9790 H       1  UNL1        0.1192
     10 C         142.4930  140.9957  159.6479 C.2     1  UNL1        0.3205
     11 N         143.6123  140.3215  158.9113 N.2     1  UNL1        0.0097
     12 C         144.4713  141.1099  157.9678 C.2     1  UNL1        0.4717
     13 N         144.2111  142.5727  157.7608 N.2     1  UNL1        0.0158
     14 C         143.0918  143.2469  158.4974 C.2     1  UNL1        0.3714
     15 N         142.5998  144.6639  158.4967 N.2     1  UNL1       -0.0339
     16 C         141.4367  144.7511  159.4398 C.2     1  UNL1        0.2323
     17 C         141.2098  143.3881  160.0234 C.2     1  UNL1        0.0486
     18 C         142.2328  142.4584  159.4410 C.3     1  UNL1        0.2428
     19 N         138.8502  139.4371  164.7064 N.am    1  UNL1       -0.3012
     20 C         139.6910  138.4511  163.9509 C.2     1  UNL1        0.2352
     21 O         140.3068  137.2862  164.6675 O.2     1  UNL1       -0.2737
     22 H         138.4460  140.2018  164.2361 H       1  UNL1        0.1497
     23 C         137.7250  138.1645  166.6723 C.3     1  UNL1        0.0262
     24 C         138.6252  139.2581  166.1787 C.3     1  UNL1        0.0942
     25 C         139.3005  140.1727  167.1572 C.ar    1  UNL1       -0.0045
     26 C         139.2291  139.8827  168.6272 C.ar    1  UNL1       -0.0027
     27 C         139.9044  140.7973  169.6057 C.ar    1  UNL1       -0.0003
     28 C         140.6510  142.0018  169.1142 C.ar    1  UNL1       -0.0000
     29 C         140.7225  142.2919  167.6443 C.ar    1  UNL1       -0.0003
     30 C         140.0472  141.3773  166.6657 C.ar    1  UNL1       -0.0027
@<TRIPOS>BOND
     1    23    24    1
     2    24    19    1
     3    19    20   am
     4    20    21    2
     5    20     1    1
     6     1     2    1
     7     1     3    1
     8     3     4    1
     9     4     5    1
    10     5    10    1
    11    10    11    2
    12    11    12    1
    13    12    13    2
    14    13    14    1
    15    14    15    2
    16    15    16    1
    17    16    17    2
    18    17    18    1
    19     5     6    1
    20     6     7    1
    21    24    25    1
    22    25    26   ar
    23    26    27   ar
    24    27    28   ar
    25    28    29   ar
    26    29    30   ar
    27     7     1    1
    28    30    25   ar
    29    18    10    1
    30    18    14    1
    31    19    22    1
    32     2     8    1
    33     2     9    1
@<TRIPOS>MOLECULE
*****
 30 33 0 0 0
SMALL
GASTEIGER

@<TRIPOS>ATOM
      1 C         138.7349  141.1743  163.6129 C.3     1  UNL1        0.1166
      2 N         137.6528  140.9535  164.6278 N.3     1  UNL1       -0.3162
      3 C         140.0650  141.0755  162.9263 C.3     1  UNL1        0.0739
      4 C         140.3055  141.8202  161.6467 C.3     1  UNL1        0.2039
      5 N         139.2161  142.6637  161.0536 N.pl3   1  UNL1       -0.1931
      6 C         137.8861  142.7625  161.7401 C.3     1  UNL1        0.2039
      7 C         137.6456  142.0178  163.0198 C.3     1  UNL1        0.0739
      8 H         137.9944  140.3294  165.3587 H       1  UNL1        0.1192
      9 H         136.8415  140.5337  164.1740 H       1  UNL1        0.1192
     10 C         139.4567  143.4084  159.7739 C.2     1  UNL1        0.3205
     11 N         140.0339  144.7925  159.8087 N.2     1  UNL1        0.0097
     12 C         140.2746  145.5371  158.5292 C.2     1  UNL1        0.4717
     13 N         139.9380  144.8978  157.2146 N.2     1  UNL1        0.0158
     14 C         139.3608  143.5138  157.1797 C.2     1  UNL1        0.3714
     15 N         138.9334  142.6329  156.0433 N.2     1  UNL1       -0.0339
     16 C         138.4286  141.3438  156.6207 C.2     1  UNL1        0.2323
     17 C         138.5440  141.4279  158.1139 C.2     1  UNL1        0.0486
     18 C         139.1201  142.7691  158.4594 C.3     1  UNL1        0.2428
     19 N         140.7017  140.7096  165.2456 N.am    1  UNL1       -0.3012
     20 C         139.4486  140.2541  164.5584 C.2     1  UNL1        0.2352
     21 O         138.9091  138.8785  164.8168 O.2     1  UNL1       -0.2737
     22 H         141.0557  141.6124  165.0760 H       1  UNL1        0.1497
     23 C         142.4170  138.8040  165.6660 C.3     1  UNL1        0.0262
     24 C         141.4154  139.7894  166.1911 C.3     1  UNL1        0.0942
     25 C         141.1275  139.8547  167.6618 C.ar    1  UNL1       -0.0045
     26 C         139.7661  140.2622  168.1421 C.ar    1  UNL1       -0.0027
     27 C         139.4782  140.3275  169.6128 C.ar    1  UNL1       -0.0003
     28 C         140.5516  139.9853  170.6031 C.ar    1  UNL1       -0.0000
     29 C         141.9129  139.5779  170.1228 C.ar    1  UNL1       -0.0003
     30 C         142.2009  139.5126  168.6521 C.ar    1  UNL1       -0.0027
@<TRIPOS>BOND
     1    23    24    1
     2    24    19    1
     3    19    20   am
     4    20    21    2
     5    20     1    1
     6     1     2    1
     7     1     3    1
     8     3     4    1
     9     4     5    1
    10     5    10    1
    11    10    11    2
    12    11    12    1
    13    12    13    2
    14    13    14    1
    15    14    15    2
    16    15    16    1
    17    16    17    2
    18    17    18    1
    19     5     6    1
    20     6     7    1
    21    24    25    1
    22    25    26   ar
    23    26    27   ar
    24    27    28   ar
    25    28    29   ar
    26    29    30   ar
    27     7     1    1
    28    30    25   ar
    29    18    10    1
    30    18    14    1
    31    19    22    1
    32     2     8    1
    33     2     9    1
@<TRIPOS>MOLECULE
*****
 30 33 0 0 0
SMALL
GASTEIGER

@<TRIPOS>ATOM
      1 C         141.3685  144.5327  162.9630 C.3     1  UNL1        0.1166
      2 N         141.5250  145.6416  163.9608 N.3     1  UNL1       -0.3162
      3 C         141.4678  143.1709  162.3419 C.3     1  UNL1        0.0739
      4 C         140.8847  142.9222  160.9825 C.3     1  UNL1        0.2039
      5 N         140.2021  144.0354  160.2441 N.pl3   1  UNL1       -0.1931
      6 C         140.1027  145.3971  160.8651 C.3     1  UNL1        0.2039
      7 C         140.6859  145.6457  162.2246 C.3     1  UNL1        0.0739
      8 H         142.0225  145.2937  164.7805 H       1  UNL1        0.1192
      9 H         140.6042  145.9800  164.2402 H       1  UNL1        0.1192
     10 C         139.6190  143.7867  158.8846 C.2     1  UNL1        0.3205
     11 N         138.4287  142.8866  158.7323 N.2     1  UNL1        0.0097
     12 C         137.8456  142.6379  157.3730 C.2     1  UNL1        0.4717
     13 N         138.4527  143.2892  156.1657 N.2     1  UNL1        0.0158
     14 C         139.6429  144.1893  156.3181 C.2     1  UNL1        0.3714
     15 N         140.4496  144.9643  155.3187 N.2     1  UNL1       -0.0339
     16 C         141.5313  145.6920  156.0606 C.2     1  UNL1        0.2323
     17 C         141.3932  145.3667  157.5184 C.2     1  UNL1        0.0486
     18 C         140.2260  144.4380  157.6775 C.3     1  UNL1        0.2428
     19 N         141.4722  142.6240  164.7225 N.am    1  UNL1       -0.3012
     20 C         142.1054  143.8047  164.0479 C.2     1  UNL1        0.2352
     21 O         143.4753  144.2573  164.4581 O.2     1  UNL1       -0.2737
     22 H         140.5730  142.3270  164.4532 H       1  UNL1        0.1497
     23 C         143.1393  140.7722  165.4584 C.3     1  UNL1        0.0262
     24 C         142.2091  141.8959  165.8074 C.3     1  UNL1        0.0942
     25 C         142.0156  142.2916  167.2413 C.ar    1  UNL1       -0.0045
     26 C         143.1677  142.2250  168.1996 C.ar    1  UNL1       -0.0027
     27 C         142.9743  142.6207  169.6335 C.ar    1  UNL1       -0.0003
     28 C         141.6288  143.0829  170.1090 C.ar    1  UNL1       -0.0000
     29 C         140.4768  143.1495  169.1507 C.ar    1  UNL1       -0.0003
     30 C         140.6702  142.7539  167.7168 C.ar    1  UNL1       -0.0027
@<TRIPOS>BOND
     1    23    24    1
     2    24    19    1
     3    19    20   am
     4    20    21    2
     5    20     1    1
     6     1     2    1
     7     1     3    1
     8     3     4    1
     9     4     5    1
    10     5    10    1
    11    10    11    2
    12    11    12    1
    13    12    13    2
    14    13    14    1
    15    14    15    2
    16    15    16    1
    17    16    17    2
    18    17    18    1
    19     5     6    1
    20     6     7    1
    21    24    25    1
    22    25    26   ar
    23    26    27   ar
    24    27    28   ar
    25    28    29   ar
    26    29    30   ar
    27     7     1    1
    28    30    25   ar
    29    18    10    1
    30    18    14    1
    31    19    22    1
    32     2     8    1
    33     2     9    1
@<TRIPOS>MOLECULE
*****
 30 33 0 0 0
SMALL
GASTEIGER

@<TRIPOS>ATOM
      1 C         139.5544  144.2727  163.4585 C.3     1  UNL1        0.1166
      2 N         139.1941  145.1324  164.6337 N.3     1  UNL1       -0.3162
      3 C         139.8363  143.0451  162.6437 C.3     1  UNL1        0.0739
      4 C         140.2188  143.1752  161.1993 C.3     1  UNL1        0.2039
      5 N         140.3196  144.5329  160.5694 N.pl3   1  UNL1       -0.1931
      6 C         140.0377  145.7605  161.3841 C.3     1  UNL1        0.2039
      7 C         139.6551  145.6303  162.8287 C.3     1  UNL1        0.0739
      8 H         139.0062  144.5406  165.4429 H       1  UNL1        0.1192
      9 H         138.3625  145.6798  164.4122 H       1  UNL1        0.1192
     10 C         140.7021  144.6630  159.1248 C.2     1  UNL1        0.3205
     11 N         141.8453  145.5497  158.7287 N.2     1  UNL1        0.0097
     12 C         142.2279  145.6798  157.2842 C.2     1  UNL1        0.4717
     13 N         141.4673  144.9232  156.2357 N.2     1  UNL1        0.0158
     14 C         140.3241  144.0365  156.6319 C.2     1  UNL1        0.3714
     15 N         139.3971  143.1744  155.8274 N.2     1  UNL1       -0.0339
     16 C         138.4415  142.5115  156.7747 C.2     1  UNL1        0.2323
     17 C         138.7780  142.9639  158.1647 C.2     1  UNL1        0.0486
     18 C         139.9416  143.9064  158.0765 C.3     1  UNL1        0.2428
     19 N         140.4871  142.6744  165.2821 N.am    1  UNL1       -0.3012
     20 C         139.3286  143.2136  164.4964 C.2     1  UNL1        0.2352
     21 O         137.9444  142.6936  164.7487 O.2     1  UNL1       -0.2737
     22 H         141.3956  143.0157  165.1165 H       1  UNL1        0.1497
     23 C         140.4929  141.9243  167.7695 C.3     1  UNL1        0.0262
     24 C         140.2613  141.6153  166.3201 C.3     1  UNL1        0.0942
     25 C         139.8040  140.2473  165.9085 C.ar    1  UNL1       -0.0045
     26 C         138.6561  139.5946  166.6201 C.ar    1  UNL1       -0.0027
     27 C         138.1988  138.2266  166.2086 C.ar    1  UNL1       -0.0003
     28 C         138.8894  137.5113  165.0855 C.ar    1  UNL1       -0.0000
     29 C         140.0373  138.1639  164.3739 C.ar    1  UNL1       -0.0003
     30 C         140.4947  139.5320  164.7854 C.ar    1  UNL1       -0.0027
@<TRIPOS>BOND
     1    23    24    1
     2    24    19    1
     3    19    20   am
     4    20    21    2
     5    20     1    1
     6     1     2    1
     7     1     3    1
     8     3     4    1
     9     4     5    1
    10     5    10    1
    11    10    11    2
    12    11    12    1
    13    12    13    2
    14    13    14    1
    15    14    15    2
    16    15    16    1
    17    16    17    2
    18    17    18    1
    19     5     6    1
    20     6     7    1
    21    24    25    1
    22    25    26   ar
    23    26    27   ar
    24    27    28   ar
    25    28    29   ar
    26    29    30   ar
    27     7     1    1
    28    30    25   ar
    29    18    10    1
    30    18    14    1
    31    19    22    1
    32     2     8    1
    33     2     9    1
@<TRIPOS>MOLECULE
*****
 30 33 0 0 0
SMALL
GASTEIGER

@<TRIPOS>ATOM
      1 C         142.8804  140.4854  163.9445 C.3     1  UNL1        0.1166
      2 N         143.2580  139.2816  163.1333 N.3     1  UNL1       -0.3162
      3 C         142.4648  141.8881  164.2759 C.3     1  UNL1        0.0739
      4 C         142.2898  142.3001  165.7075 C.3     1  UNL1        0.2039
      5 N         142.5305  141.3094  166.8079 N.pl3   1  UNL1       -0.1931
      6 C         142.9461  139.9068  166.4766 C.3     1  UNL1        0.2039
      7 C         143.1211  139.4948  165.0449 C.3     1  UNL1        0.0739
      8 H         143.2296  139.5175  162.1414 H       1  UNL1        0.1192
      9 H         142.6006  138.5247  163.3217 H       1  UNL1        0.1192
     10 C         142.3555  141.7215  168.2395 C.2     1  UNL1        0.3205
     11 N         143.4035  142.5571  168.9129 N.2     1  UNL1        0.0097
     12 C         143.2286  142.9692  170.3445 C.2     1  UNL1        0.4717
     13 N         142.0055  142.5457  171.1028 N.2     1  UNL1        0.0158
     14 C         140.9575  141.7102  170.4294 C.2     1  UNL1        0.3714
     15 N         139.6564  141.1462  170.9184 N.2     1  UNL1       -0.0339
     16 C         139.0273  140.3856  169.7890 C.2     1  UNL1        0.2323
     17 C         139.9395  140.4794  168.6020 C.2     1  UNL1        0.0486
     18 C         141.1325  141.2981  168.9978 C.3     1  UNL1        0.2428
     19 N         143.6728  142.1804  162.1422 N.am    1  UNL1       -0.3012
     20 C         142.7709  141.0579  162.5625 C.2     1  UNL1        0.2352
     21 O         141.7595  140.5081  161.6008 O.2     1  UNL1       -0.2737
     22 H         144.3366  142.5413  162.7734 H       1  UNL1        0.1497
     23 C         144.5685  142.3790  159.7115 C.3     1  UNL1        0.0262
     24 C         143.5633  142.7531  160.7601 C.3     1  UNL1        0.0942
     25 C         142.4486  143.6998  160.4267 C.ar    1  UNL1       -0.0045
     26 C         141.7255  144.4231  161.5239 C.ar    1  UNL1       -0.0027
     27 C         140.6108  145.3698  161.1905 C.ar    1  UNL1       -0.0003
     28 C         140.2192  145.5932  159.7598 C.ar    1  UNL1       -0.0000
     29 C         140.9423  144.8699  158.6626 C.ar    1  UNL1       -0.0003
     30 C         142.0570  143.9231  158.9960 C.ar    1  UNL1       -0.0027
@<TRIPOS>BOND
     1    23    24    1
     2    24    19    1
     3    19    20   am
     4    20    21    2
     5    20     1    1
     6     1     2    1
     7     1     3    1
     8     3     4    1
     9     4     5    1
    10     5    10    1
    11    10    11    2
    12    11    12    1
    13    12    13    2
    14    13    14    1
    15    14    15    2
    16    15    16    1
    17    16    17    2
    18    17    18    1
    19     5     6    1
    20     6     7    1
    21    24    25    1
    22    25    26   ar
    23    26    27   ar
    24    27    28   ar
    25    28    29   ar
    26    29    30   ar
    27     7     1    1
    28    30    25   ar
    29    18    10    1
    30    18    14    1
    31    19    22    1
    32     2     8    1
    33     2     9    1
