@<TRIPOS>MOLECULE
*****
 31 34 0 0 0
SMALL
GASTEIGER

@<TRIPOS>ATOM
      1 C         141.4590  140.8804  166.4792 C.2     1  UNL1        0.0020
      2 C         142.1021  141.5635  167.6496 C.2     1  UNL1        0.0130
      3 C         141.4893  141.4497  169.0139 C.3     1  UNL1        0.1542
      4 C         142.7451  142.2466  168.8200 C.3     1  UNL1        0.0614
      5 C         143.3882  142.9297  169.9903 C.3     1  UNL1        0.0725
      6 N         142.7753  142.8159  171.3547 N.3     1  UNL1       -0.2972
      7 C         141.5194  142.0191  171.5487 C.3     1  UNL1        0.0725
      8 C         140.8764  141.3360  170.3783 C.3     1  UNL1        0.0614
      9 O         140.2333  140.6528  169.2079 O.3     1  UNL1       -0.4784
     10 C         139.5902  139.9697  168.0375 C.ar    1  UNL1        0.1416
     11 C         138.3343  139.1728  168.2315 C.ar    1  UNL1        0.0735
     12 C         137.6912  138.4897  167.0611 C.ar    1  UNL1        0.1367
     13 O         136.4354  137.6928  167.2551 O.3     1  UNL1       -0.5054
     14 C         138.3041  138.6035  165.6967 C.ar    1  UNL1        0.0368
     15 C         139.5600  139.4003  165.5027 C.ar    1  UNL1        0.0061
     16 C         140.2031  140.0835  166.6732 C.ar    1  UNL1        0.0340
     17 H         142.5725  143.7657  171.6665 H       1  UNL1        0.1233
     18 H         136.0525  137.6217  168.1073 H       1  UNL1        0.2922
     19 C         143.2975  141.2217  162.3861 C.ar    1  UNL1        0.0536
     20 C         143.8704  140.2637  163.3881 C.ar    1  UNL1        0.0045
     21 C         143.2575  140.1499  164.7524 C.ar    1  UNL1        0.0001
     22 C         142.0718  140.9942  165.1148 C.ar    1  UNL1       -0.0001
     23 C         141.4989  141.9522  164.1128 C.ar    1  UNL1        0.0001
     24 C         142.1118  142.0660  162.7485 C.ar    1  UNL1        0.0045
     25 N         143.5233  140.3682  159.9427 N.am    1  UNL1       -0.2761
     26 C         143.9104  141.3355  161.0217 C.2     1  UNL1        0.2490
     27 O         144.9103  142.4166  160.7365 O.2     1  UNL1       -0.2699
     28 C         143.4464  139.8739  157.3932 C.3     1  UNL1        0.0233
     29 C         144.1362  140.4820  158.5783 C.3     1  UNL1        0.0938
     30 C         142.5234  139.2871  160.2279 C.3     1  UNL1        0.0938
     31 C         142.9917  137.9119  160.6015 C.3     1  UNL1        0.0233
@<TRIPOS>BOND
     1    28    29    1
     2    29    25    1
     3    25    30    1
     4    30    31    1
     5    25    26   am
     6    26    27    2
     7    26    19    1
     8    19    20   ar
     9    20    21   ar
    10    21    22   ar
    11    22     1    1
    12     1     2    2
    13     2     3    1
    14     3     4    1
    15     4     5    1
    16     5     6    1
    17     6     7    1
    18     7     8    1
    19     3     9    1
    20     9    10    1
    21    10    11   ar
    22    11    12   ar
    23    12    13    1
    24    12    14   ar
    25    14    15   ar
    26    15    16   ar
    27    22    23   ar
    28    23    24   ar
    29    24    19   ar
    30    16     1    1
    31     8     3    1
    32    16    10   ar
    33     6    17    1
    34    13    18    1
@<TRIPOS>MOLECULE
*****
 31 34 0 0 0
SMALL
GASTEIGER

@<TRIPOS>ATOM
      1 C         141.9595  142.2123  162.6282 C.2     1  UNL1        0.0020
      2 C         142.6053  141.3040  161.6241 C.2     1  UNL1        0.0130
      3 C         142.5370  141.6329  160.1622 C.3     1  UNL1        0.1542
      4 C         143.2511  140.3959  160.6201 C.3     1  UNL1        0.0614
      5 C         143.8969  139.4877  159.6161 C.3     1  UNL1        0.0725
      6 N         143.8286  139.8165  158.1542 N.3     1  UNL1       -0.2972
      7 C         143.1145  141.0536  157.6963 C.3     1  UNL1        0.0725
      8 C         142.4687  141.9617  158.7003 C.3     1  UNL1        0.0614
      9 O         141.8229  142.8700  159.7043 O.3     1  UNL1       -0.4784
     10 C         141.1771  143.7782  160.7084 C.ar    1  UNL1        0.1416
     11 C         140.4629  145.0153  160.2505 C.ar    1  UNL1        0.0735
     12 C         139.8171  145.9235  161.2545 C.ar    1  UNL1        0.1367
     13 O         139.1030  147.1606  160.7966 O.3     1  UNL1       -0.5054
     14 C         139.8854  145.5947  162.7164 C.ar    1  UNL1        0.0368
     15 C         140.5995  144.3576  163.1743 C.ar    1  UNL1        0.0061
     16 C         141.2454  143.4494  162.1703 C.ar    1  UNL1        0.0340
     17 H         143.3736  139.0271  157.6958 H       1  UNL1        0.1233
     18 H         139.0603  147.3660  159.8834 H       1  UNL1        0.2922
     19 C         142.1644  141.2258  167.0139 C.ar    1  UNL1        0.0536
     20 C         141.0945  140.6164  166.1573 C.ar    1  UNL1        0.0045
     21 C         141.0261  140.9453  164.6954 C.ar    1  UNL1        0.0001
     22 C         142.0278  141.8835  164.0901 C.ar    1  UNL1       -0.0001
     23 C         143.0979  142.4928  164.9467 C.ar    1  UNL1        0.0001
     24 C         143.1662  142.1640  166.4086 C.ar    1  UNL1        0.0045
     25 N         141.4927  141.7418  169.4700 N.am    1  UNL1       -0.2761
     26 C         142.2328  140.8969  168.4758 C.2     1  UNL1        0.2490
     27 O         143.0412  139.7231  168.9435 O.2     1  UNL1       -0.2699
     28 C         140.6439  140.3769  171.5113 C.3     1  UNL1        0.0233
     29 C         141.5610  141.4130  170.9319 C.3     1  UNL1        0.0938
     30 C         140.6843  142.9156  169.0023 C.3     1  UNL1        0.0938
     31 C         140.4098  144.0570  169.9360 C.3     1  UNL1        0.0233
@<TRIPOS>BOND
     1    28    29    1
     2    29    25    1
     3    25    30    1
     4    30    31    1
     5    25    26   am
     6    26    27    2
     7    26    19    1
     8    19    20   ar
     9    20    21   ar
    10    21    22   ar
    11    22     1    1
    12     1     2    2
    13     2     3    1
    14     3     4    1
    15     4     5    1
    16     5     6    1
    17     6     7    1
    18     7     8    1
    19     3     9    1
    20     9    10    1
    21    10    11   ar
    22    11    12   ar
    23    12    13    1
    24    12    14   ar
    25    14    15   ar
    26    15    16   ar
    27    22    23   ar
    28    23    24   ar
    29    24    19   ar
    30    16     1    1
    31     8     3    1
    32    16    10   ar
    33     6    17    1
    34    13    18    1
@<TRIPOS>MOLECULE
*****
 31 34 0 0 0
SMALL
GASTEIGER

@<TRIPOS>ATOM
      1 C         141.3992  142.1247  166.5093 C.2     1  UNL1        0.0020
      2 C         140.8381  142.6283  167.8061 C.2     1  UNL1        0.0130
      3 C         141.0657  141.8564  169.0719 C.3     1  UNL1        0.1542
      4 C         140.2770  143.1319  169.1028 C.3     1  UNL1        0.0614
      5 C         139.7159  143.6354  170.3995 C.3     1  UNL1        0.0725
      6 N         139.9436  142.8635  171.6654 N.3     1  UNL1       -0.2972
      7 C         140.7323  141.5880  171.6344 C.3     1  UNL1        0.0725
      8 C         141.2934  141.0845  170.3377 C.3     1  UNL1        0.0614
      9 O         141.8545  140.5808  169.0409 O.3     1  UNL1       -0.4784
     10 C         142.4156  140.0773  167.7442 C.ar    1  UNL1        0.1416
     11 C         143.2043  138.8017  167.7132 C.ar    1  UNL1        0.0735
     12 C         143.7654  138.2981  166.4165 C.ar    1  UNL1        0.1367
     13 O         144.5541  137.0226  166.3856 O.3     1  UNL1       -0.5054
     14 C         143.5377  139.0701  165.1506 C.ar    1  UNL1        0.0368
     15 C         142.7490  140.3455  165.1816 C.ar    1  UNL1        0.0061
     16 C         142.1879  140.8492  166.4784 C.ar    1  UNL1        0.0340
     17 H         139.0230  142.6315  172.0384 H       1  UNL1        0.1233
     18 H         144.6963  136.5405  167.1763 H       1  UNL1        0.2922
     19 C         140.7162  144.4404  162.7118 C.ar    1  UNL1        0.0536
     20 C         141.9996  144.6055  163.4704 C.ar    1  UNL1        0.0045
     21 C         142.2273  143.8336  164.7362 C.ar    1  UNL1        0.0001
     22 C         141.1715  142.8966  165.2434 C.ar    1  UNL1       -0.0001
     23 C         139.8880  142.7314  164.4848 C.ar    1  UNL1        0.0001
     24 C         139.6603  143.5034  163.2190 C.ar    1  UNL1        0.0045
     25 N         140.8827  144.6204  160.1253 N.am    1  UNL1       -0.2761
     26 C         140.4885  145.2123  161.4460 C.2     1  UNL1        0.2490
     27 O         139.8667  146.5763  161.5008 O.2     1  UNL1       -0.2699
     28 C         141.8187  145.7682  157.9907 C.3     1  UNL1        0.0233
     29 C         140.6550  145.3923  158.8595 C.3     1  UNL1        0.0938
     30 C         141.5046  143.2564  160.0705 C.3     1  UNL1        0.0938
     31 C         142.9937  143.1065  160.1701 C.3     1  UNL1        0.0233
@<TRIPOS>BOND
     1    28    29    1
     2    29    25    1
     3    25    30    1
     4    30    31    1
     5    25    26   am
     6    26    27    2
     7    26    19    1
     8    19    20   ar
     9    20    21   ar
    10    21    22   ar
    11    22     1    1
    12     1     2    2
    13     2     3    1
    14     3     4    1
    15     4     5    1
    16     5     6    1
    17     6     7    1
    18     7     8    1
    19     3     9    1
    20     9    10    1
    21    10    11   ar
    22    11    12   ar
    23    12    13    1
    24    12    14   ar
    25    14    15   ar
    26    15    16   ar
    27    22    23   ar
    28    23    24   ar
    29    24    19   ar
    30    16     1    1
    31     8     3    1
    32    16    10   ar
    33     6    17    1
    34    13    18    1
@<TRIPOS>MOLECULE
*****
 31 34 0 0 0
SMALL
GASTEIGER

@<TRIPOS>ATOM
      1 C         141.2685  141.3329  166.5829 C.2     1  UNL1        0.0020
      2 C         141.9043  141.9208  167.8078 C.2     1  UNL1        0.0130
      3 C         141.3628  141.5887  169.1667 C.3     1  UNL1        0.1542
      4 C         142.5399  142.5087  169.0327 C.3     1  UNL1        0.0614
      5 C         143.1755  143.0966  170.2575 C.3     1  UNL1        0.0725
      6 N         142.6341  142.7644  171.6164 N.3     1  UNL1       -0.2972
      7 C         141.4570  141.8445  171.7504 C.3     1  UNL1        0.0725
      8 C         140.8213  141.2566  170.5255 C.3     1  UNL1        0.0614
      9 O         140.1856  140.6687  169.3006 O.3     1  UNL1       -0.4784
     10 C         139.5500  140.0808  168.0758 C.ar    1  UNL1        0.1416
     11 C         138.3728  139.1607  168.2098 C.ar    1  UNL1        0.0735
     12 C         137.7372  138.5729  166.9849 C.ar    1  UNL1        0.1367
     13 O         136.5601  137.6529  167.1189 O.3     1  UNL1       -0.5054
     14 C         138.2786  138.9050  165.6260 C.ar    1  UNL1        0.0368
     15 C         139.4557  139.8250  165.4920 C.ar    1  UNL1        0.0061
     16 C         140.0914  140.4129  166.7169 C.ar    1  UNL1        0.0340
     17 H         142.3683  143.6479  172.0514 H       1  UNL1        0.1233
     18 H         136.2218  137.4454  167.9677 H       1  UNL1        0.2922
     19 C         142.8929  142.3292  162.5063 C.ar    1  UNL1        0.0536
     20 C         142.5314  143.4298  163.4592 C.ar    1  UNL1        0.0045
     21 C         141.9900  143.0977  164.8180 C.ar    1  UNL1        0.0001
     22 C         141.8100  141.6650  165.2240 C.ar    1  UNL1       -0.0001
     23 C         142.1715  140.5643  164.2712 C.ar    1  UNL1        0.0001
     24 C         142.7130  140.8964  162.9123 C.ar    1  UNL1        0.0045
     25 N         142.4941  142.9711  160.0206 N.am    1  UNL1       -0.2761
     26 C         143.4344  142.6614  161.1474 C.2     1  UNL1        0.2490
     27 O         144.9162  142.6837  160.9155 O.2     1  UNL1       -0.2699
     28 C         142.8475  142.3435  157.5243 C.3     1  UNL1        0.0233
     29 C         143.0356  143.3032  158.6617 C.3     1  UNL1        0.0938
     30 C         141.0123  142.9487  160.2525 C.3     1  UNL1        0.0938
     31 C         140.2517  144.2364  160.3681 C.3     1  UNL1        0.0233
@<TRIPOS>BOND
     1    28    29    1
     2    29    25    1
     3    25    30    1
     4    30    31    1
     5    25    26   am
     6    26    27    2
     7    26    19    1
     8    19    20   ar
     9    20    21   ar
    10    21    22   ar
    11    22     1    1
    12     1     2    2
    13     2     3    1
    14     3     4    1
    15     4     5    1
    16     5     6    1
    17     6     7    1
    18     7     8    1
    19     3     9    1
    20     9    10    1
    21    10    11   ar
    22    11    12   ar
    23    12    13    1
    24    12    14   ar
    25    14    15   ar
    26    15    16   ar
    27    22    23   ar
    28    23    24   ar
    29    24    19   ar
    30    16     1    1
    31     8     3    1
    32    16    10   ar
    33     6    17    1
    34    13    18    1
@<TRIPOS>MOLECULE
*****
 31 34 0 0 0
SMALL
GASTEIGER

@<TRIPOS>ATOM
      1 C         141.6180  140.1523  163.6619 C.2     1  UNL1        0.0020
      2 C         140.5047  139.5583  164.4731 C.2     1  UNL1        0.0130
      3 C         140.3126  139.9749  165.9013 C.3     1  UNL1        0.1542
      4 C         139.3916  138.9644  165.2843 C.3     1  UNL1        0.0614
      5 C         138.2784  138.3705  166.0955 C.3     1  UNL1        0.0725
      6 N         138.0862  138.7870  167.5237 N.3     1  UNL1       -0.2972
      7 C         139.0072  139.7975  168.1406 C.3     1  UNL1        0.0725
      8 C         140.1204  140.3914  167.3294 C.3     1  UNL1        0.0614
      9 O         141.2336  140.9854  166.5182 O.3     1  UNL1       -0.4784
     10 C         142.3468  141.5793  165.7070 C.ar    1  UNL1        0.1416
     11 C         143.2679  142.5899  166.3239 C.ar    1  UNL1        0.0735
     12 C         144.3810  143.1838  165.5127 C.ar    1  UNL1        0.1367
     13 O         145.3020  144.1943  166.1296 O.3     1  UNL1       -0.5054
     14 C         144.5732  142.7672  164.0846 C.ar    1  UNL1        0.0368
     15 C         143.6522  141.7567  163.4677 C.ar    1  UNL1        0.0061
     16 C         142.5390  141.1628  164.2789 C.ar    1  UNL1        0.0340
     17 H         138.1562  137.9410  168.0891 H       1  UNL1        0.1233
     18 H         145.1820  144.4545  167.0217 H       1  UNL1        0.2922
     19 C         142.1944  138.9026  159.3775 C.ar    1  UNL1        0.0536
     20 C         142.9649  138.2195  160.4682 C.ar    1  UNL1        0.0045
     21 C         142.7728  138.6360  161.8964 C.ar    1  UNL1        0.0001
     22 C         141.8101  139.7357  162.2338 C.ar    1  UNL1       -0.0001
     23 C         141.0395  140.4189  161.1431 C.ar    1  UNL1        0.0001
     24 C         141.2317  140.0024  159.7150 C.ar    1  UNL1        0.0045
     25 N         143.3447  139.2357  157.0719 N.am    1  UNL1       -0.2761
     26 C         142.3866  138.4860  157.9494 C.2     1  UNL1        0.2490
     27 O         141.6206  137.3197  157.3988 O.2     1  UNL1       -0.2699
     28 C         144.3765  137.6193  155.3190 C.3     1  UNL1        0.0233
     29 C         143.5368  138.8191  155.6438 C.3     1  UNL1        0.0938
     30 C         144.1106  140.4020  157.6225 C.3     1  UNL1        0.0938
     31 C         145.2635  140.9734  156.8516 C.3     1  UNL1        0.0233
@<TRIPOS>BOND
     1    28    29    1
     2    29    25    1
     3    25    30    1
     4    30    31    1
     5    25    26   am
     6    26    27    2
     7    26    19    1
     8    19    20   ar
     9    20    21   ar
    10    21    22   ar
    11    22     1    1
    12     1     2    2
    13     2     3    1
    14     3     4    1
    15     4     5    1
    16     5     6    1
    17     6     7    1
    18     7     8    1
    19     3     9    1
    20     9    10    1
    21    10    11   ar
    22    11    12   ar
    23    12    13    1
    24    12    14   ar
    25    14    15   ar
    26    15    16   ar
    27    22    23   ar
    28    23    24   ar
    29    24    19   ar
    30    16     1    1
    31     8     3    1
    32    16    10   ar
    33     6    17    1
    34    13    18    1
@<TRIPOS>MOLECULE
*****
 31 34 0 0 0
SMALL
GASTEIGER

@<TRIPOS>ATOM
      1 C         140.2333  140.3362  162.5185 C.2     1  UNL1        0.0020
      2 C         140.2573  141.8344  162.5893 C.2     1  UNL1        0.0130
      3 C         139.6382  142.5399  163.7594 C.3     1  UNL1        0.1542
      4 C         140.2812  143.3325  162.6602 C.3     1  UNL1        0.0614
      5 C         140.3051  144.8306  162.7311 C.3     1  UNL1        0.0725
      6 N         139.6860  145.5361  163.9011 N.3     1  UNL1       -0.2972
      7 C         139.0430  144.7435  165.0003 C.3     1  UNL1        0.0725
      8 C         139.0191  143.2454  164.9294 C.3     1  UNL1        0.0614
      9 O         138.9951  141.7472  164.8586 O.3     1  UNL1       -0.4784
     10 C         138.9712  140.2491  164.7877 C.ar    1  UNL1        0.1416
     11 C         138.3282  139.4564  165.8869 C.ar    1  UNL1        0.0735
     12 C         138.3043  137.9583  165.8161 C.ar    1  UNL1        0.1367
     13 O         137.6613  137.1656  166.9152 O.3     1  UNL1       -0.5054
     14 C         138.9234  137.2528  164.6460 C.ar    1  UNL1        0.0368
     15 C         139.5664  138.0454  163.5468 C.ar    1  UNL1        0.0061
     16 C         139.5903  139.5436  163.6177 C.ar    1  UNL1        0.0340
     17 H         138.9675  146.1550  163.5253 H       1  UNL1        0.1233
     18 H         137.2746  137.6063  167.6461 H       1  UNL1        0.2922
     19 C         142.0906  138.2198  159.0083 C.ar    1  UNL1        0.0536
     20 C         140.6507  138.6368  158.9565 C.ar    1  UNL1        0.0045
     21 C         140.0316  139.3423  160.1265 C.ar    1  UNL1        0.0001
     22 C         140.8524  139.6308  161.3484 C.ar    1  UNL1       -0.0001
     23 C         142.2924  139.2137  161.4003 C.ar    1  UNL1        0.0001
     24 C         142.9115  138.5082  160.2302 C.ar    1  UNL1        0.0045
     25 N         143.2063  138.3038  156.6635 N.am    1  UNL1       -0.2761
     26 C         142.7097  137.5143  157.8383 C.2     1  UNL1        0.2490
     27 O         142.8322  136.0193  157.8430 O.2     1  UNL1       -0.2699
     28 C         142.9517  136.9669  154.4503 C.3     1  UNL1        0.0233
     29 C         143.8254  137.5983  155.4935 C.3     1  UNL1        0.0938
     30 C         143.0838  139.7988  156.6588 C.3     1  UNL1        0.0938
     31 C         144.1984  140.6444  157.1996 C.3     1  UNL1        0.0233
@<TRIPOS>BOND
     1    28    29    1
     2    29    25    1
     3    25    30    1
     4    30    31    1
     5    25    26   am
     6    26    27    2
     7    26    19    1
     8    19    20   ar
     9    20    21   ar
    10    21    22   ar
    11    22     1    1
    12     1     2    2
    13     2     3    1
    14     3     4    1
    15     4     5    1
    16     5     6    1
    17     6     7    1
    18     7     8    1
    19     3     9    1
    20     9    10    1
    21    10    11   ar
    22    11    12   ar
    23    12    13    1
    24    12    14   ar
    25    14    15   ar
    26    15    16   ar
    27    22    23   ar
    28    23    24   ar
    29    24    19   ar
    30    16     1    1
    31     8     3    1
    32    16    10   ar
    33     6    17    1
    34    13    18    1
@<TRIPOS>MOLECULE
*****
 31 34 0 0 0
SMALL
GASTEIGER

@<TRIPOS>ATOM
      1 C         141.6885  140.2344  163.6813 C.2     1  UNL1        0.0020
      2 C         140.5679  139.6339  164.4776 C.2     1  UNL1        0.0130
      3 C         140.3733  140.0260  165.9123 C.3     1  UNL1        0.1542
      4 C         139.4475  139.0334  165.2738 C.3     1  UNL1        0.0614
      5 C         138.3270  138.4330  166.0700 C.3     1  UNL1        0.0725
      6 N         138.1323  138.8251  167.5047 N.3     1  UNL1       -0.2972
      7 C         139.0581  139.8176  168.1432 C.3     1  UNL1        0.0725
      8 C         140.1786  140.4181  167.3470 C.3     1  UNL1        0.0614
      9 O         141.2991  141.0186  166.5507 O.3     1  UNL1       -0.4784
     10 C         142.4196  141.6190  165.7545 C.ar    1  UNL1        0.1416
     11 C         143.3455  142.6116  166.3930 C.ar    1  UNL1        0.0735
     12 C         144.4659  143.2120  165.5968 C.ar    1  UNL1        0.1367
     13 O         145.3917  144.2046  166.2353 O.3     1  UNL1       -0.5054
     14 C         144.6606  142.8200  164.1621 C.ar    1  UNL1        0.0368
     15 C         143.7348  141.8274  163.5236 C.ar    1  UNL1        0.0061
     16 C         142.6143  141.2269  164.3198 C.ar    1  UNL1        0.0340
     17 H         138.1941  137.9685  168.0550 H       1  UNL1        0.1233
     18 H         145.2701  144.4495  167.1315 H       1  UNL1        0.2922
     19 C         142.2725  139.0581  159.3772 C.ar    1  UNL1        0.0536
     20 C         142.5420  138.0657  160.4692 C.ar    1  UNL1        0.0045
     21 C         142.3474  138.4578  161.9039 C.ar    1  UNL1        0.0001
     22 C         141.8831  139.8423  162.2466 C.ar    1  UNL1       -0.0001
     23 C         141.6135  140.8348  161.1547 C.ar    1  UNL1        0.0001
     24 C         141.8082  140.4427  159.7200 C.ar    1  UNL1        0.0045
     25 N         141.2886  138.2543  157.1110 N.am    1  UNL1       -0.2761
     26 C         142.4671  138.6660  157.9425 C.2     1  UNL1        0.2490
     27 O         143.8404  138.6856  157.3394 O.2     1  UNL1       -0.2699
     28 C         140.3888  137.1494  154.9385 C.3     1  UNL1        0.0233
     29 C         141.4832  137.8622  155.6763 C.3     1  UNL1        0.0938
     30 C         139.9153  138.2346  157.7142 C.3     1  UNL1        0.0938
     31 C         139.0199  139.4305  157.5797 C.3     1  UNL1        0.0233
@<TRIPOS>BOND
     1    28    29    1
     2    29    25    1
     3    25    30    1
     4    30    31    1
     5    25    26   am
     6    26    27    2
     7    26    19    1
     8    19    20   ar
     9    20    21   ar
    10    21    22   ar
    11    22     1    1
    12     1     2    2
    13     2     3    1
    14     3     4    1
    15     4     5    1
    16     5     6    1
    17     6     7    1
    18     7     8    1
    19     3     9    1
    20     9    10    1
    21    10    11   ar
    22    11    12   ar
    23    12    13    1
    24    12    14   ar
    25    14    15   ar
    26    15    16   ar
    27    22    23   ar
    28    23    24   ar
    29    24    19   ar
    30    16     1    1
    31     8     3    1
    32    16    10   ar
    33     6    17    1
    34    13    18    1
@<TRIPOS>MOLECULE
*****
 31 34 0 0 0
SMALL
GASTEIGER

@<TRIPOS>ATOM
      1 C         140.4938  142.2846  161.7212 C.2     1  UNL1        0.0020
      2 C         141.9451  141.9124  161.7956 C.2     1  UNL1        0.0130
      3 C         142.7663  142.3289  162.9797 C.3     1  UNL1        0.1542
      4 C         143.3962  141.5402  161.8701 C.3     1  UNL1        0.0614
      5 C         144.8474  141.1681  161.9446 C.3     1  UNL1        0.0725
      6 N         145.6687  141.5846  163.1287 N.3     1  UNL1       -0.2972
      7 C         145.0388  142.3733  164.2383 C.3     1  UNL1        0.0725
      8 C         143.5876  142.7454  164.1638 C.3     1  UNL1        0.0614
      9 O         142.1364  143.1176  164.0893 O.3     1  UNL1       -0.4784
     10 C         140.6852  143.4897  164.0148 C.ar    1  UNL1        0.1416
     11 C         140.0552  144.2784  165.1245 C.ar    1  UNL1        0.0735
     12 C         138.6041  144.6505  165.0500 C.ar    1  UNL1        0.1367
     13 O         137.9742  145.4392  166.1596 O.3     1  UNL1       -0.5054
     14 C         137.7828  144.2340  163.8659 C.ar    1  UNL1        0.0368
     15 C         138.4127  143.4454  162.7563 C.ar    1  UNL1        0.0061
     16 C         139.8639  143.0732  162.8308 C.ar    1  UNL1        0.0340
     17 H         146.4400  142.1468  162.7689 H       1  UNL1        0.1233
     18 H         138.4872  145.6993  166.8992 H       1  UNL1        0.2922
     19 C         138.0300  141.0350  158.1690 C.ar    1  UNL1        0.0536
     20 C         138.3286  140.0487  159.2589 C.ar    1  UNL1        0.0045
     21 C         139.1499  140.4652  160.4430 C.ar    1  UNL1        0.0001
     22 C         139.6725  141.8680  160.5371 C.ar    1  UNL1       -0.0001
     23 C         139.3739  142.8544  159.4471 C.ar    1  UNL1        0.0001
     24 C         138.5527  142.4379  158.2631 C.ar    1  UNL1        0.0045
     25 N         137.8848  140.2035  155.7119 N.am    1  UNL1       -0.2761
     26 C         137.2087  140.6185  156.9849 C.2     1  UNL1        0.2490
     27 O         135.7113  140.6171  157.0739 O.2     1  UNL1       -0.2699
     28 C         136.7788  138.3341  154.2862 C.3     1  UNL1        0.0233
     29 C         137.0635  139.7870  154.5278 C.3     1  UNL1        0.0938
     30 C         139.3822  140.2049  155.6228 C.3     1  UNL1        0.0938
     31 C         140.1572  138.9779  156.0019 C.3     1  UNL1        0.0233
@<TRIPOS>BOND
     1    28    29    1
     2    29    25    1
     3    25    30    1
     4    30    31    1
     5    25    26   am
     6    26    27    2
     7    26    19    1
     8    19    20   ar
     9    20    21   ar
    10    21    22   ar
    11    22     1    1
    12     1     2    2
    13     2     3    1
    14     3     4    1
    15     4     5    1
    16     5     6    1
    17     6     7    1
    18     7     8    1
    19     3     9    1
    20     9    10    1
    21    10    11   ar
    22    11    12   ar
    23    12    13    1
    24    12    14   ar
    25    14    15   ar
    26    15    16   ar
    27    22    23   ar
    28    23    24   ar
    29    24    19   ar
    30    16     1    1
    31     8     3    1
    32    16    10   ar
    33     6    17    1
    34    13    18    1
@<TRIPOS>MOLECULE
*****
 31 34 0 0 0
SMALL
GASTEIGER

@<TRIPOS>ATOM
      1 C         142.1597  140.3253  161.1719 C.2     1  UNL1        0.0020
      2 C         143.3251  140.8723  161.9418 C.2     1  UNL1        0.0130
      3 C         143.0914  141.6648  163.1937 C.3     1  UNL1        0.1542
      4 C         144.4904  141.4193  162.7117 C.3     1  UNL1        0.0614
      5 C         145.6557  141.9663  163.4816 C.3     1  UNL1        0.0725
      6 N         145.4220  142.7588  164.7336 N.3     1  UNL1       -0.2972
      7 C         144.0229  143.0043  165.2156 C.3     1  UNL1        0.0725
      8 C         142.8576  142.4573  164.4457 C.3     1  UNL1        0.0614
      9 O         141.6922  141.9102  163.6757 O.3     1  UNL1       -0.4784
     10 C         140.5270  141.3632  162.9058 C.ar    1  UNL1        0.1416
     11 C         139.1278  141.6087  163.3878 C.ar    1  UNL1        0.0735
     12 C         137.9625  141.0617  162.6179 C.ar    1  UNL1        0.1367
     13 O         136.5635  141.3072  163.0999 O.3     1  UNL1       -0.5054
     14 C         138.1963  140.2692  161.3660 C.ar    1  UNL1        0.0368
     15 C         139.5953  140.0237  160.8840 C.ar    1  UNL1        0.0061
     16 C         140.7607  140.5707  161.6539 C.ar    1  UNL1        0.0340
     17 H         145.8476  143.6740  164.5865 H       1  UNL1        0.1233
     18 H         136.4175  141.8022  163.8820 H       1  UNL1        0.2922
     19 C         142.8610  137.9478  157.4161 C.ar    1  UNL1        0.0536
     20 C         142.7830  137.2503  158.7417 C.ar    1  UNL1        0.0045
     21 C         142.5492  138.0427  159.9936 C.ar    1  UNL1        0.0001
     22 C         142.3935  139.5328  159.9199 C.ar    1  UNL1       -0.0001
     23 C         142.4715  140.2304  158.5943 C.ar    1  UNL1        0.0001
     24 C         142.7052  139.4379  157.3424 C.ar    1  UNL1        0.0045
     25 N         141.9321  136.5687  155.4198 N.am    1  UNL1       -0.2761
     26 C         143.0947  137.1553  156.1642 C.2     1  UNL1        0.2490
     27 O         144.4912  136.9495  155.6566 O.2     1  UNL1       -0.2699
     28 C         141.8133  136.3619  152.8327 C.3     1  UNL1        0.0233
     29 C         142.1658  135.7762  154.1679 C.3     1  UNL1        0.0938
     30 C         140.5356  136.7745  155.9274 C.3     1  UNL1        0.0938
     31 C         139.7336  137.9527  155.4598 C.3     1  UNL1        0.0233
@<TRIPOS>BOND
     1    28    29    1
     2    29    25    1
     3    25    30    1
     4    30    31    1
     5    25    26   am
     6    26    27    2
     7    26    19    1
     8    19    20   ar
     9    20    21   ar
    10    21    22   ar
    11    22     1    1
    12     1     2    2
    13     2     3    1
    14     3     4    1
    15     4     5    1
    16     5     6    1
    17     6     7    1
    18     7     8    1
    19     3     9    1
    20     9    10    1
    21    10    11   ar
    22    11    12   ar
    23    12    13    1
    24    12    14   ar
    25    14    15   ar
    26    15    16   ar
    27    22    23   ar
    28    23    24   ar
    29    24    19   ar
    30    16     1    1
    31     8     3    1
    32    16    10   ar
    33     6    17    1
    34    13    18    1
