@<TRIPOS>MOLECULE
*****
 32 36 0 0 0
SMALL
GASTEIGER

@<TRIPOS>ATOM
      1 N         138.2984  140.0653  159.8124 N.am    1  UNL1       -0.2375
      2 C         138.9607  138.7200  159.7721 C.3     1  UNL1        0.1006
      3 C         139.1612  138.2595  161.1855 C.3     1  UNL1        0.0307
      4 C         138.6227  139.3202  162.0995 C.3     1  UNL1        0.0737
      5 C         138.0469  140.4616  162.8840 C.3     1  UNL1        0.0260
      6 C         138.0425  140.4145  164.3832 C.3     1  UNL1        0.0727
      7 N         138.6139  139.2259  165.0979 N.3     1  UNL1       -0.2703
      8 C         139.1896  138.0844  164.3134 C.3     1  UNL1        0.0727
      9 C         139.1941  138.1316  162.8142 C.3     1  UNL1        0.0260
     10 C         138.0895  140.4362  161.2508 C.2     1  UNL1        0.2300
     11 O         137.4582  141.7011  161.7525 O.2     1  UNL1       -0.2745
     12 C         136.0423  141.6347  155.3039 C.3     1  UNL1        0.0744
     13 C         136.8757  141.6155  156.5509 C.ar    1  UNL1        0.1494
     14 N         137.7627  142.7237  157.0356 N.ar    1  UNL1       -0.1917
     15 S         138.4036  142.2779  158.3164 S.2     1  UNL1        0.0495
     16 C         137.9127  140.8942  158.6232 C.ar    1  UNL1        0.1875
     17 N         136.9684  140.4847  157.5321 N.ar    1  UNL1       -0.2075
     18 C         138.6094  139.1788  166.5972 C.3     1  UNL1        0.1063
     19 C         139.7785  139.7163  167.3679 C.3     1  UNL1        0.1483
     20 O         139.7084  139.8185  168.8628 O.3     1  UNL1       -0.3786
     21 H         140.5411  140.1830  169.2014 H       1  UNL1        0.2108
     22 C         141.0180  140.1518  166.6438 C.ar    1  UNL1        0.0015
     23 C         142.0936  139.1541  166.3314 C.ar    1  UNL1       -0.0020
     24 C         143.3330  139.5895  165.6073 C.ar    1  UNL1        0.0060
     25 C         143.4967  141.0226  165.1956 C.ar    1  UNL1        0.0748
     26 C         142.4210  142.0202  165.5080 C.ar    1  UNL1        0.0233
     27 C         141.1817  141.5849  166.2321 C.ar    1  UNL1       -0.0238
     28 C         140.1060  142.5825  166.5446 C.3     1  UNL1        0.0306
     29 C         142.8591  143.3545  164.9809 C.3     1  UNL1        0.2352
     30 O         144.2055  143.1815  164.3427 O.3     1  UNL1       -0.4404
     31 C         144.5995  141.7403  164.4754 C.2     1  UNL1        0.3413
     32 O         145.8729  141.1248  163.9756 O.2     1  UNL1       -0.2449
@<TRIPOS>BOND
     1    12    13    1
     2    13    14   ar
     3    14    15   ar
     4    15    16   ar
     5    16     1    1
     6     1     2    1
     7     2     3    1
     8     3     4    1
     9     4     5    1
    10     5     6    1
    11     6     7    1
    12     7    18    1
    13    18    19    1
    14    19    20    1
    15    19    22    1
    16    22    23   ar
    17    23    24   ar
    18    24    25   ar
    19    25    26   ar
    20    26    27   ar
    21    27    28    1
    22    26    29    1
    23    29    30    1
    24    30    31    1
    25    31    32    2
    26     7     8    1
    27     8     9    1
    28     4    10    1
    29    10    11    2
    30    16    17   ar
    31    17    13   ar
    32    10     1   am
    33     9     4    1
    34    27    22   ar
    35    31    25    1
    36    20    21    1
@<TRIPOS>MOLECULE
*****
 32 36 0 0 0
SMALL
GASTEIGER

@<TRIPOS>ATOM
      1 N         142.9602  138.5424  159.8115 N.am    1  UNL1       -0.2375
      2 C         144.0478  138.5651  160.8443 C.3     1  UNL1        0.1006
      3 C         143.4136  138.3709  162.1897 C.3     1  UNL1        0.0307
      4 C         141.9340  138.2282  161.9884 C.3     1  UNL1        0.0737
      5 C         140.4820  138.1028  161.6335 C.3     1  UNL1        0.0260
      6 C         139.4618  137.8912  162.7126 C.3     1  UNL1        0.0727
      7 N         139.8936  137.8051  164.1465 N.3     1  UNL1       -0.2703
      8 C         141.3455  137.9305  164.5014 C.3     1  UNL1        0.0727
      9 C         142.3657  138.1420  163.4223 C.3     1  UNL1        0.0260
     10 C         141.6538  138.3342  160.5186 C.2     1  UNL1        0.2300
     11 O         140.3041  138.2472  159.8698 O.2     1  UNL1       -0.2745
     12 C         144.5536  140.3567  155.1158 C.3     1  UNL1        0.0744
     13 C         143.8787  139.5342  156.1731 C.ar    1  UNL1        0.1494
     14 N         142.9868  138.3520  155.9349 N.ar    1  UNL1       -0.1917
     15 S         142.5341  137.8366  157.2688 S.2     1  UNL1        0.0495
     16 C         143.1464  138.7002  158.3315 C.ar    1  UNL1        0.1875
     17 N         143.9774  139.7494  157.6543 N.ar    1  UNL1       -0.2075
     18 C         138.8733  137.5935  165.2256 C.3     1  UNL1        0.1063
     19 C         138.1590  138.7692  165.8233 C.3     1  UNL1        0.1483
     20 O         137.3049  138.5872  167.0429 O.3     1  UNL1       -0.3786
     21 H         136.9186  139.4398  167.2973 H       1  UNL1        0.2108
     22 C         138.2988  140.1272  165.2015 C.ar    1  UNL1        0.0015
     23 C         137.4796  140.4889  163.9981 C.ar    1  UNL1       -0.0020
     24 C         137.6193  141.8467  163.3763 C.ar    1  UNL1        0.0060
     25 C         138.5783  142.8428  163.9578 C.ar    1  UNL1        0.0748
     26 C         139.3975  142.4811  165.1611 C.ar    1  UNL1        0.0233
     27 C         139.2577  141.1232  165.7830 C.ar    1  UNL1       -0.0238
     28 C         140.0769  140.7615  166.9863 C.3     1  UNL1        0.0306
     29 C         140.2539  143.6618  165.5108 C.3     1  UNL1        0.2352
     30 O         139.9641  144.7533  164.5236 O.3     1  UNL1       -0.4404
     31 C         138.9285  144.2472  163.5638 C.2     1  UNL1        0.3413
     32 O         138.3454  145.0112  162.4122 O.2     1  UNL1       -0.2449
@<TRIPOS>BOND
     1    12    13    1
     2    13    14   ar
     3    14    15   ar
     4    15    16   ar
     5    16     1    1
     6     1     2    1
     7     2     3    1
     8     3     4    1
     9     4     5    1
    10     5     6    1
    11     6     7    1
    12     7    18    1
    13    18    19    1
    14    19    20    1
    15    19    22    1
    16    22    23   ar
    17    23    24   ar
    18    24    25   ar
    19    25    26   ar
    20    26    27   ar
    21    27    28    1
    22    26    29    1
    23    29    30    1
    24    30    31    1
    25    31    32    2
    26     7     8    1
    27     8     9    1
    28     4    10    1
    29    10    11    2
    30    16    17   ar
    31    17    13   ar
    32    10     1   am
    33     9     4    1
    34    27    22   ar
    35    31    25    1
    36    20    21    1
@<TRIPOS>MOLECULE
*****
 32 36 0 0 0
SMALL
GASTEIGER

@<TRIPOS>ATOM
      1 N         142.0305  138.5756  159.4507 N.am    1  UNL1       -0.2375
      2 C         143.3551  139.2743  159.3641 C.3     1  UNL1        0.1006
      3 C         143.9037  139.4017  160.7543 C.3     1  UNL1        0.0307
      4 C         142.9183  138.7817  161.7003 C.3     1  UNL1        0.0737
      5 C         141.8446  138.1301  162.5202 C.3     1  UNL1        0.0260
      6 C         141.9911  138.0370  164.0101 C.3     1  UNL1        0.0727
      7 N         143.2115  138.5956  164.6800 N.3     1  UNL1       -0.2703
      8 C         144.2853  139.2472  163.8601 C.3     1  UNL1        0.0727
      9 C         144.1387  139.3402  162.3702 C.3     1  UNL1        0.0260
     10 C         141.7606  138.2712  160.8946 C.2     1  UNL1        0.2300
     11 O         140.5462  137.5779  161.4374 O.2     1  UNL1       -0.2745
     12 C         140.1810  136.4755  154.9732 C.3     1  UNL1        0.0744
     13 C         140.2833  137.2749  156.2382 C.ar    1  UNL1        0.1494
     14 N         139.2225  138.1734  156.8015 N.ar    1  UNL1       -0.1917
     15 S         139.7479  138.7700  158.0735 S.2     1  UNL1        0.0495
     16 C         141.1334  138.2402  158.2963 C.ar    1  UNL1        0.1875
     17 N         141.4643  137.3162  157.1621 N.ar    1  UNL1       -0.2075
     18 C         143.3581  138.5025  166.1700 C.3     1  UNL1        0.1063
     19 C         142.6892  139.5130  167.0540 C.3     1  UNL1        0.1483
     20 O         143.0292  139.5744  168.5137 O.3     1  UNL1       -0.3786
     21 H         142.5120  140.2775  168.9368 H       1  UNL1        0.2108
     22 C         141.6803  140.4621  166.4783 C.ar    1  UNL1        0.0015
     23 C         140.2232  140.1063  166.4912 C.ar    1  UNL1       -0.0020
     24 C         139.2143  141.0554  165.9156 C.ar    1  UNL1        0.0060
     25 C         139.6625  142.3603  165.3271 C.ar    1  UNL1        0.0748
     26 C         141.1197  142.7161  165.3142 C.ar    1  UNL1        0.0233
     27 C         142.1286  141.7670  165.8898 C.ar    1  UNL1       -0.0238
     28 C         143.5857  142.1228  165.8770 C.3     1  UNL1        0.0306
     29 C         141.2621  144.0637  164.6710 C.3     1  UNL1        0.2352
     30 O         139.8930  144.5408  164.2864 O.3     1  UNL1       -0.4404
     31 C         138.9044  143.4880  164.6918 C.2     1  UNL1        0.3413
     32 O         137.4186  143.5517  164.4964 O.2     1  UNL1       -0.2449
@<TRIPOS>BOND
     1    12    13    1
     2    13    14   ar
     3    14    15   ar
     4    15    16   ar
     5    16     1    1
     6     1     2    1
     7     2     3    1
     8     3     4    1
     9     4     5    1
    10     5     6    1
    11     6     7    1
    12     7    18    1
    13    18    19    1
    14    19    20    1
    15    19    22    1
    16    22    23   ar
    17    23    24   ar
    18    24    25   ar
    19    25    26   ar
    20    26    27   ar
    21    27    28    1
    22    26    29    1
    23    29    30    1
    24    30    31    1
    25    31    32    2
    26     7     8    1
    27     8     9    1
    28     4    10    1
    29    10    11    2
    30    16    17   ar
    31    17    13   ar
    32    10     1   am
    33     9     4    1
    34    27    22   ar
    35    31    25    1
    36    20    21    1
@<TRIPOS>MOLECULE
*****
 32 36 0 0 0
SMALL
GASTEIGER

@<TRIPOS>ATOM
      1 N         142.8291  138.3478  159.9998 N.am    1  UNL1       -0.2375
      2 C         144.0955  139.0967  160.2924 C.3     1  UNL1        0.1006
      3 C         144.0786  139.4880  161.7404 C.3     1  UNL1        0.0307
      4 C         142.8018  138.9810  162.3428 C.3     1  UNL1        0.0737
      5 C         141.4905  138.4165  162.8031 C.3     1  UNL1        0.0260
      6 C         141.0613  138.5847  164.2305 C.3     1  UNL1        0.0727
      7 N         141.9434  139.3174  165.1975 N.3     1  UNL1       -0.2703
      8 C         143.2546  139.8818  164.7372 C.3     1  UNL1        0.0727
      9 C         143.6838  139.7137  163.3098 C.3     1  UNL1        0.0260
     10 C         142.0296  138.2763  161.2671 C.2     1  UNL1        0.2300
     11 O         140.6926  137.6160  161.4299 O.2     1  UNL1       -0.2745
     12 C         142.7686  135.3948  155.6230 C.3     1  UNL1        0.0744
     13 C         142.4043  136.4142  156.6613 C.ar    1  UNL1        0.1494
     14 N         141.2378  137.3553  156.6017 N.ar    1  UNL1       -0.1917
     15 S         141.2550  138.1942  157.8450 S.2     1  UNL1        0.0495
     16 C         142.4321  137.7715  158.6731 C.ar    1  UNL1        0.1875
     17 N         143.1424  136.6714  157.9416 N.ar    1  UNL1       -0.2075
     18 C         141.5141  139.4855  166.6250 C.3     1  UNL1        0.1063
     19 C         140.5519  140.5749  166.9954 C.3     1  UNL1        0.1483
     20 O         139.9458  140.6057  168.3671 O.3     1  UNL1       -0.3786
     21 H         139.3510  141.3685  168.4408 H       1  UNL1        0.2108
     22 C         140.1957  141.6335  165.9941 C.ar    1  UNL1        0.0015
     23 C         141.0507  142.8588  165.8618 C.ar    1  UNL1       -0.0020
     24 C         140.6946  143.9174  164.8606 C.ar    1  UNL1        0.0060
     25 C         139.4834  143.7506  163.9916 C.ar    1  UNL1        0.0748
     26 C         138.6284  142.5253  164.1238 C.ar    1  UNL1        0.0233
     27 C         138.9845  141.4667  165.1251 C.ar    1  UNL1       -0.0238
     28 C         138.1295  140.2414  165.2573 C.3     1  UNL1        0.0306
     29 C         137.5035  142.6364  163.1377 C.3     1  UNL1        0.2352
     30 O         137.6634  143.9303  162.3960 O.3     1  UNL1       -0.4404
     31 C         138.8870  144.6189  162.9237 C.2     1  UNL1        0.3413
     32 O         139.4206  145.9434  162.4643 O.2     1  UNL1       -0.2449
@<TRIPOS>BOND
     1    12    13    1
     2    13    14   ar
     3    14    15   ar
     4    15    16   ar
     5    16     1    1
     6     1     2    1
     7     2     3    1
     8     3     4    1
     9     4     5    1
    10     5     6    1
    11     6     7    1
    12     7    18    1
    13    18    19    1
    14    19    20    1
    15    19    22    1
    16    22    23   ar
    17    23    24   ar
    18    24    25   ar
    19    25    26   ar
    20    26    27   ar
    21    27    28    1
    22    26    29    1
    23    29    30    1
    24    30    31    1
    25    31    32    2
    26     7     8    1
    27     8     9    1
    28     4    10    1
    29    10    11    2
    30    16    17   ar
    31    17    13   ar
    32    10     1   am
    33     9     4    1
    34    27    22   ar
    35    31    25    1
    36    20    21    1
@<TRIPOS>MOLECULE
*****
 32 36 0 0 0
SMALL
GASTEIGER

@<TRIPOS>ATOM
      1 N         137.6707  139.1457  170.0369 N.am    1  UNL1       -0.2375
      2 C         138.7223  140.2007  170.2136 C.3     1  UNL1        0.1006
      3 C         139.3364  140.4724  168.8723 C.3     1  UNL1        0.0307
      4 C         138.6644  139.5853  167.8665 C.3     1  UNL1        0.0737
      5 C         137.9057  138.6432  166.9796 C.3     1  UNL1        0.0260
      6 C         138.2097  138.5861  165.5118 C.3     1  UNL1        0.0727
      7 N         139.2724  139.4712  164.9310 N.3     1  UNL1       -0.2703
      8 C         140.0311  140.4134  165.8180 C.3     1  UNL1        0.0727
      9 C         139.7271  140.4704  167.2857 C.3     1  UNL1        0.0260
     10 C         137.6349  138.7654  168.5862 C.2     1  UNL1        0.2300
     11 O         136.7288  137.7444  167.9645 O.2     1  UNL1       -0.2745
     12 C         135.8883  136.0592  173.9325 C.3     1  UNL1        0.0744
     13 C         135.9874  137.1531  172.9110 C.ar    1  UNL1        0.1494
     14 N         134.9668  138.2242  172.6645 N.ar    1  UNL1       -0.1917
     15 S         135.4731  139.1011  171.5578 S.2     1  UNL1        0.0495
     16 C         136.8067  138.5718  171.1204 C.ar    1  UNL1        0.1875
     17 N         137.1246  137.3679  171.9567 N.ar    1  UNL1       -0.2075
     18 C         139.5764  139.4141  163.4632 C.3     1  UNL1        0.1063
     19 C         138.7442  140.2000  162.4938 C.3     1  UNL1        0.1483
     20 O         137.3683  139.7260  162.1301 O.3     1  UNL1       -0.3786
     21 H         136.9702  140.3440  161.4973 H       1  UNL1        0.2108
     22 C         139.2879  141.4600  161.8881 C.ar    1  UNL1        0.0015
     23 C         140.1523  141.3914  160.6641 C.ar    1  UNL1       -0.0020
     24 C         140.6960  142.6513  160.0583 C.ar    1  UNL1        0.0060
     25 C         140.3753  143.9798  160.6765 C.ar    1  UNL1        0.0748
     26 C         139.5109  144.0484  161.9005 C.ar    1  UNL1        0.0233
     27 C         138.9672  142.7885  162.5063 C.ar    1  UNL1       -0.0238
     28 C         138.1028  142.8571  163.7303 C.3     1  UNL1        0.0306
     29 C         139.3663  145.4909  162.2855 C.3     1  UNL1        0.2352
     30 O         140.1412  146.3139  161.2996 O.3     1  UNL1       -0.4404
     31 C         140.7648  145.3799  160.3051 C.2     1  UNL1        0.3413
     32 O         141.6267  145.7765  159.1433 O.2     1  UNL1       -0.2449
@<TRIPOS>BOND
     1    12    13    1
     2    13    14   ar
     3    14    15   ar
     4    15    16   ar
     5    16     1    1
     6     1     2    1
     7     2     3    1
     8     3     4    1
     9     4     5    1
    10     5     6    1
    11     6     7    1
    12     7    18    1
    13    18    19    1
    14    19    20    1
    15    19    22    1
    16    22    23   ar
    17    23    24   ar
    18    24    25   ar
    19    25    26   ar
    20    26    27   ar
    21    27    28    1
    22    26    29    1
    23    29    30    1
    24    30    31    1
    25    31    32    2
    26     7     8    1
    27     8     9    1
    28     4    10    1
    29    10    11    2
    30    16    17   ar
    31    17    13   ar
    32    10     1   am
    33     9     4    1
    34    27    22   ar
    35    31    25    1
    36    20    21    1
@<TRIPOS>MOLECULE
*****
 32 36 0 0 0
SMALL
GASTEIGER

@<TRIPOS>ATOM
      1 N         142.1444  139.5165  167.1118 N.am    1  UNL1       -0.2375
      2 C         143.1124  138.6327  166.3824 C.3     1  UNL1        0.1006
      3 C         142.4590  138.1801  165.1103 C.3     1  UNL1        0.0307
      4 C         141.0872  138.7842  165.0534 C.3     1  UNL1        0.0737
      5 C         139.7481  139.4552  165.1347 C.3     1  UNL1        0.0260
      6 C         138.7466  139.2665  164.0341 C.3     1  UNL1        0.0727
      7 N         139.0842  138.4067  162.8522 N.3     1  UNL1       -0.2703
      8 C         140.4232  137.7357  162.7709 C.3     1  UNL1        0.0727
      9 C         141.4247  137.9244  163.8715 C.3     1  UNL1        0.0260
     10 C         140.8927  139.6101  166.2904 C.2     1  UNL1        0.2300
     11 O         139.6626  140.3923  166.6439 O.2     1  UNL1       -0.2745
     12 C         143.2419  143.1754  170.7571 C.3     1  UNL1        0.0744
     13 C         142.8902  141.8704  170.1064 C.ar    1  UNL1        0.1494
     14 N         142.6238  140.5755  170.8150 N.ar    1  UNL1       -0.1917
     15 S         142.3120  139.5361  169.7794 S.2     1  UNL1        0.0495
     16 C         142.3857  140.1887  168.4309 C.ar    1  UNL1        0.1875
     17 N         142.7430  141.6314  168.6329 N.ar    1  UNL1       -0.2075
     18 C         138.0826  138.2180  161.7516 C.3     1  UNL1        0.1063
     19 C         137.7518  139.3583  160.8349 C.3     1  UNL1        0.1483
     20 O         136.3931  139.4445  160.2052 O.3     1  UNL1       -0.3786
     21 H         136.3457  140.2355  159.6458 H       1  UNL1        0.2108
     22 C         138.7798  140.4124  160.5479 C.ar    1  UNL1        0.0015
     23 C         139.8766  140.1413  159.5612 C.ar    1  UNL1       -0.0020
     24 C         140.9045  141.1953  159.2742 C.ar    1  UNL1        0.0060
     25 C         140.8356  142.5203  159.9738 C.ar    1  UNL1        0.0748
     26 C         139.7388  142.7914  160.9605 C.ar    1  UNL1        0.0233
     27 C         138.7109  141.7374  161.2475 C.ar    1  UNL1       -0.0238
     28 C         137.6141  142.0084  162.2342 C.3     1  UNL1        0.0306
     29 C         139.9265  144.1815  161.4919 C.3     1  UNL1        0.2352
     30 O         141.1393  144.7696  160.8337 O.3     1  UNL1       -0.4404
     31 C         141.7012  143.7429  159.8955 C.2     1  UNL1        0.3413
     32 O         142.9154  143.9096  159.0307 O.2     1  UNL1       -0.2449
@<TRIPOS>BOND
     1    12    13    1
     2    13    14   ar
     3    14    15   ar
     4    15    16   ar
     5    16     1    1
     6     1     2    1
     7     2     3    1
     8     3     4    1
     9     4     5    1
    10     5     6    1
    11     6     7    1
    12     7    18    1
    13    18    19    1
    14    19    20    1
    15    19    22    1
    16    22    23   ar
    17    23    24   ar
    18    24    25   ar
    19    25    26   ar
    20    26    27   ar
    21    27    28    1
    22    26    29    1
    23    29    30    1
    24    30    31    1
    25    31    32    2
    26     7     8    1
    27     8     9    1
    28     4    10    1
    29    10    11    2
    30    16    17   ar
    31    17    13   ar
    32    10     1   am
    33     9     4    1
    34    27    22   ar
    35    31    25    1
    36    20    21    1
@<TRIPOS>MOLECULE
*****
 32 36 0 0 0
SMALL
GASTEIGER

@<TRIPOS>ATOM
      1 N         140.4097  139.9104  167.2504 N.am    1  UNL1       -0.2375
      2 C         138.9674  139.5065  167.3339 C.3     1  UNL1        0.1006
      3 C         138.5368  139.0416  165.9744 C.3     1  UNL1        0.0307
      4 C         139.7128  139.1580  165.0505 C.3     1  UNL1        0.0737
      5 C         140.9697  139.3290  164.2498 C.3     1  UNL1        0.0260
      6 C         140.9854  138.9713  162.7932 C.3     1  UNL1        0.0727
      7 N         139.7443  138.4427  162.1373 N.3     1  UNL1       -0.2703
      8 C         138.4875  138.2718  162.9379 C.3     1  UNL1        0.0727
      9 C         138.4717  138.6295  164.3945 C.3     1  UNL1        0.0260
     10 C         140.8703  139.6950  165.8391 C.2     1  UNL1        0.2300
     11 O         142.2468  139.9686  165.3095 O.2     1  UNL1       -0.2745
     12 C         144.1179  142.5082  169.9671 C.3     1  UNL1        0.0744
     13 C         142.9491  141.6312  169.6284 C.ar    1  UNL1        0.1494
     14 N         142.1098  140.8640  170.6067 N.ar    1  UNL1       -0.1917
     15 S         141.0564  140.1260  169.8349 S.2     1  UNL1        0.0495
     16 C         141.2446  140.4371  168.3797 C.ar    1  UNL1        0.1875
     17 N         142.4143  141.3673  168.2520 N.ar    1  UNL1       -0.2075
     18 C         139.7601  138.0851  160.6806 C.3     1  UNL1        0.1063
     19 C         139.5309  139.1460  159.6453 C.3     1  UNL1        0.1483
     20 O         139.2242  138.7582  158.2291 O.3     1  UNL1       -0.3786
     21 H         139.1046  139.5580  157.6935 H       1  UNL1        0.2108
     22 C         139.6084  140.5948  160.0261 C.ar    1  UNL1        0.0015
     23 C         138.3947  141.2957  160.5607 C.ar    1  UNL1       -0.0020
     24 C         138.4721  142.7444  160.9415 C.ar    1  UNL1        0.0060
     25 C         139.7632  143.4923  160.7878 C.ar    1  UNL1        0.0748
     26 C         140.9769  142.7914  160.2533 C.ar    1  UNL1        0.0233
     27 C         140.8995  141.3427  159.8724 C.ar    1  UNL1       -0.0238
     28 C         142.1132  140.6418  159.3379 C.3     1  UNL1        0.0306
     29 C         142.1034  143.7811  160.2128 C.3     1  UNL1        0.2352
     30 O         141.5860  145.0936  160.7224 O.3     1  UNL1       -0.4404
     31 C         140.1397  144.9151  161.0777 C.2     1  UNL1        0.3413
     32 O         139.2295  145.9735  161.6266 O.2     1  UNL1       -0.2449
@<TRIPOS>BOND
     1    12    13    1
     2    13    14   ar
     3    14    15   ar
     4    15    16   ar
     5    16     1    1
     6     1     2    1
     7     2     3    1
     8     3     4    1
     9     4     5    1
    10     5     6    1
    11     6     7    1
    12     7    18    1
    13    18    19    1
    14    19    20    1
    15    19    22    1
    16    22    23   ar
    17    23    24   ar
    18    24    25   ar
    19    25    26   ar
    20    26    27   ar
    21    27    28    1
    22    26    29    1
    23    29    30    1
    24    30    31    1
    25    31    32    2
    26     7     8    1
    27     8     9    1
    28     4    10    1
    29    10    11    2
    30    16    17   ar
    31    17    13   ar
    32    10     1   am
    33     9     4    1
    34    27    22   ar
    35    31    25    1
    36    20    21    1
@<TRIPOS>MOLECULE
*****
 32 36 0 0 0
SMALL
GASTEIGER

@<TRIPOS>ATOM
      1 N         143.4416  139.9861  157.7415 N.am    1  UNL1       -0.2375
      2 C         143.4283  141.4329  157.3456 C.3     1  UNL1        0.1006
      3 C         143.7030  142.2517  158.5720 C.3     1  UNL1        0.0307
      4 C         143.8861  141.3109  159.7261 C.3     1  UNL1        0.0737
      5 C         144.0441  140.2534  160.7780 C.3     1  UNL1        0.0260
      6 C         144.3373  140.6443  162.1962 C.3     1  UNL1        0.0727
      7 N         144.4723  142.0926  162.5624 N.3     1  UNL1       -0.2703
      8 C         144.3142  143.1501  161.5104 C.3     1  UNL1        0.0727
      9 C         144.0211  142.7593  160.0923 C.3     1  UNL1        0.0260
     10 C         143.7245  139.9108  159.2128 C.2     1  UNL1        0.2300
     11 O         143.8277  138.6556  160.0276 O.2     1  UNL1       -0.2745
     12 C         141.6949  135.3999  155.7933 C.3     1  UNL1        0.0744
     13 C         142.4094  136.7115  155.9314 C.ar    1  UNL1        0.1494
     14 N         143.3094  137.3373  154.9076 N.ar    1  UNL1       -0.1917
     15 S         143.8056  138.6402  155.4610 S.2     1  UNL1        0.0495
     16 C         143.2123  138.8196  156.8269 C.ar    1  UNL1        0.1875
     17 N         142.3494  137.6276  157.1177 N.ar    1  UNL1       -0.2075
     18 C         144.7654  142.4834  163.9807 C.3     1  UNL1        0.1063
     19 C         143.6380  142.7417  164.9358 C.3     1  UNL1        0.1483
     20 O         143.9301  143.0621  166.3718 O.3     1  UNL1       -0.3786
     21 H         143.0965  143.2002  166.8482 H       1  UNL1        0.2108
     22 C         142.2185  142.6797  164.4549 C.ar    1  UNL1        0.0015
     23 C         141.4637  141.3847  164.5107 C.ar    1  UNL1       -0.0020
     24 C         140.0442  141.3226  164.0299 C.ar    1  UNL1        0.0060
     25 C         139.3796  142.5555  163.4931 C.ar    1  UNL1        0.0748
     26 C         140.1345  143.8506  163.4373 C.ar    1  UNL1        0.0233
     27 C         141.5539  143.9126  163.9181 C.ar    1  UNL1       -0.0238
     28 C         142.3088  145.2077  163.8623 C.3     1  UNL1        0.0306
     29 C         139.2234  144.8937  162.8612 C.3     1  UNL1        0.2352
     30 O         137.9054  144.2434  162.5611 O.3     1  UNL1       -0.4404
     31 C         138.0020  142.7983  162.9516 C.2     1  UNL1        0.3413
     32 O         136.9123  141.7756  162.8232 O.2     1  UNL1       -0.2449
@<TRIPOS>BOND
     1    12    13    1
     2    13    14   ar
     3    14    15   ar
     4    15    16   ar
     5    16     1    1
     6     1     2    1
     7     2     3    1
     8     3     4    1
     9     4     5    1
    10     5     6    1
    11     6     7    1
    12     7    18    1
    13    18    19    1
    14    19    20    1
    15    19    22    1
    16    22    23   ar
    17    23    24   ar
    18    24    25   ar
    19    25    26   ar
    20    26    27   ar
    21    27    28    1
    22    26    29    1
    23    29    30    1
    24    30    31    1
    25    31    32    2
    26     7     8    1
    27     8     9    1
    28     4    10    1
    29    10    11    2
    30    16    17   ar
    31    17    13   ar
    32    10     1   am
    33     9     4    1
    34    27    22   ar
    35    31    25    1
    36    20    21    1
@<TRIPOS>MOLECULE
*****
 32 36 0 0 0
SMALL
GASTEIGER

@<TRIPOS>ATOM
      1 N         140.7717  141.3206  168.1047 N.am    1  UNL1       -0.2375
      2 C         140.0421  140.0303  168.3347 C.3     1  UNL1        0.1006
      3 C         139.2063  139.7478  167.1216 C.3     1  UNL1        0.0307
      4 C         139.4193  140.8635  166.1417 C.3     1  UNL1        0.0737
      5 C         139.7303  142.0420  165.2675 C.3     1  UNL1        0.0260
      6 C         139.0885  142.1642  163.9172 C.3     1  UNL1        0.0727
      7 N         138.1358  141.1079  163.4413 N.3     1  UNL1       -0.2703
      8 C         137.8249  139.9294  164.3156 C.3     1  UNL1        0.0727
      9 C         138.4666  139.8072  165.6658 C.3     1  UNL1        0.0260
     10 C         140.3868  141.8356  166.7494 C.2     1  UNL1        0.2300
     11 O         140.8823  143.1005  166.1134 O.2     1  UNL1       -0.2745
     12 C         145.1929  143.1712  170.3201 C.3     1  UNL1        0.0744
     13 C         143.7520  142.8308  170.0801 C.ar    1  UNL1        0.1494
     14 N         142.6052  143.1595  170.9895 N.ar    1  UNL1       -0.1917
     15 S         141.3492  142.6337  170.3601 S.2     1  UNL1        0.0495
     16 C         141.7197  141.9802  169.0619 C.ar    1  UNL1        0.1875
     17 N         143.2047  142.1020  168.8888 N.ar    1  UNL1       -0.2075
     18 C         137.4940  141.2301  162.0910 C.3     1  UNL1        0.1063
     19 C         137.8058  140.2283  161.0190 C.3     1  UNL1        0.1483
     20 O         136.7139  139.3673  160.4566 O.3     1  UNL1       -0.3786
     21 H         137.0824  138.7795  159.7786 H       1  UNL1        0.2108
     22 C         139.2096  140.0876  160.5093 C.ar    1  UNL1        0.0015
     23 C         139.7592  141.0907  159.5388 C.ar    1  UNL1       -0.0020
     24 C         141.1629  140.9500  159.0291 C.ar    1  UNL1        0.0060
     25 C         142.0170  139.8063  159.4899 C.ar    1  UNL1        0.0748
     26 C         141.4674  138.8032  160.4604 C.ar    1  UNL1        0.0233
     27 C         140.0637  138.9439  160.9700 C.ar    1  UNL1       -0.0238
     28 C         139.5141  137.9408  161.9405 C.3     1  UNL1        0.0306
     29 C         142.5373  137.7879  160.7334 C.3     1  UNL1        0.2352
     30 O         143.7482  138.1635  159.9317 O.3     1  UNL1       -0.4404
     31 C         143.4266  139.4109  159.1632 C.2     1  UNL1        0.3413
     32 O         144.3521  140.1358  158.2315 O.2     1  UNL1       -0.2449
@<TRIPOS>BOND
     1    12    13    1
     2    13    14   ar
     3    14    15   ar
     4    15    16   ar
     5    16     1    1
     6     1     2    1
     7     2     3    1
     8     3     4    1
     9     4     5    1
    10     5     6    1
    11     6     7    1
    12     7    18    1
    13    18    19    1
    14    19    20    1
    15    19    22    1
    16    22    23   ar
    17    23    24   ar
    18    24    25   ar
    19    25    26   ar
    20    26    27   ar
    21    27    28    1
    22    26    29    1
    23    29    30    1
    24    30    31    1
    25    31    32    2
    26     7     8    1
    27     8     9    1
    28     4    10    1
    29    10    11    2
    30    16    17   ar
    31    17    13   ar
    32    10     1   am
    33     9     4    1
    34    27    22   ar
    35    31    25    1
    36    20    21    1
