@<TRIPOS>MOLECULE
*****
 38 41 0 0 0
SMALL
GASTEIGER

@<TRIPOS>ATOM
      1 C         140.0924  143.3882  158.9004 C.3     1  UNL1        0.0188
      2 C         139.2998  142.8100  160.0350 C.3     1  UNL1        0.0736
      3 C         138.7221  141.4305  159.9200 C.3     1  UNL1        0.0884
      4 N         137.9295  140.8523  161.0546 N.3     1  UNL1       -0.2660
      5 C         137.7145  141.6536  162.3043 C.3     1  UNL1        0.0884
      6 C         138.2922  143.0330  162.4193 C.3     1  UNL1        0.0736
      7 C         138.0773  143.8344  163.6691 C.3     1  UNL1        0.0188
      8 N         139.0848  143.6112  161.2847 N.3     1  UNL1       -0.2706
      9 C         137.3518  139.4727  160.9395 C.3     1  UNL1        0.1374
     10 C         138.0055  138.3243  161.6492 C.3     1  UNL1        0.2734
     11 S         139.4975  138.2867  161.7991 S.O     1  UNL1        0.0356
     12 O         140.3412  137.6351  160.7437 O.co2   1  UNL1       -0.6809
     13 C         140.1459  138.9007  163.0043 C.3     1  UNL1        0.2470
     14 C         141.4915  139.5522  162.8819 C.ar    1  UNL1        0.0356
     15 C         141.6434  140.8160  162.0884 C.ar    1  UNL1        0.0032
     16 C         142.9889  141.4676  161.9659 C.ar    1  UNL1        0.0295
     17 C         144.1825  140.8554  162.6370 C.ar    1  UNL1        0.1401
     18 F         145.5281  141.5070  162.5146 F       1  UNL1       -0.2042
     19 C         144.0306  139.5916  163.4306 C.ar    1  UNL1        0.0295
     20 C         142.6851  138.9400  163.5530 C.ar    1  UNL1        0.0032
     21 C         139.4488  138.8631  164.3319 C.ar    1  UNL1        0.0356
     22 C         139.3320  140.1128  165.1533 C.ar    1  UNL1        0.0032
     23 C         138.6349  140.0753  166.4809 C.ar    1  UNL1        0.0295
     24 C         138.0545  138.7881  166.9872 C.ar    1  UNL1        0.1401
     25 F         137.3574  138.7505  168.3148 F       1  UNL1       -0.2042
     26 C         138.1714  137.5384  166.1659 C.ar    1  UNL1        0.0295
     27 C         138.8685  137.5759  164.8382 C.ar    1  UNL1        0.0032
     28 C         139.6625  144.9908  161.3998 C.3     1  UNL1        0.1020
     29 C         141.0767  145.1753  161.8646 C.3     1  UNL1        0.1308
     30 O         142.2072  145.0804  160.8832 O.3     1  UNL1       -0.3827
     31 H         141.8532  144.8967  159.9990 H       1  UNL1        0.2104
     32 C         141.3605  145.4547  163.3108 C.3     1  UNL1        0.0570
     33 C         142.1385  144.4656  164.1271 C.ar    1  UNL1       -0.0197
     34 C         141.4280  143.3402  164.8189 C.ar    1  UNL1       -0.0042
     35 C         142.2061  142.3511  165.6352 C.ar    1  UNL1       -0.0003
     36 C         143.6946  142.4875  165.7597 C.ar    1  UNL1       -0.0000
     37 C         144.4052  143.6130  165.0680 C.ar    1  UNL1       -0.0003
     38 C         143.6272  144.6020  164.2517 C.ar    1  UNL1       -0.0042
@<TRIPOS>UNITY_ATOM_ATTR
11 1
charge 1
12 1
charge -1
@<TRIPOS>BOND
     1     2     1    1
     2     2     3    1
     3     3     4    1
     4     4     9    1
     5     9    10    1
     6    10    11    1
     7    11    12    2
     8    11    13    1
     9    13    14    1
    10    14    15   ar
    11    15    16   ar
    12    16    17   ar
    13    17    18    1
    14    17    19   ar
    15    19    20   ar
    16    13    21    1
    17    21    22   ar
    18    22    23   ar
    19    23    24   ar
    20    24    25    1
    21    24    26   ar
    22    26    27   ar
    23     4     5    1
    24     5     6    1
    25     6     7    1
    26     6     8    1
    27     8    28    1
    28    28    29    1
    29    29    30    1
    30    29    32    1
    31    32    33    1
    32    33    34   ar
    33    34    35   ar
    34    35    36   ar
    35    36    37   ar
    36    37    38   ar
    37     8     2    1
    38    38    33   ar
    39    20    14   ar
    40    27    21   ar
    41    30    31    1
@<TRIPOS>MOLECULE
*****
 38 41 0 0 0
SMALL
GASTEIGER

@<TRIPOS>ATOM
      1 C         144.3286  144.0603  162.4172 C.3     1  UNL1        0.0188
      2 C         143.8067  142.6549  162.4672 C.3     1  UNL1        0.0736
      3 C         144.2409  141.7323  163.5674 C.3     1  UNL1        0.0884
      4 N         143.7190  140.3270  163.6174 N.3     1  UNL1       -0.2660
      5 C         142.7629  139.8441  162.5673 C.3     1  UNL1        0.0884
      6 C         142.3288  140.7666  161.4672 C.3     1  UNL1        0.0736
      7 C         141.3727  140.2838  160.4170 C.3     1  UNL1        0.0188
      8 N         142.8507  142.1720  161.4171 N.3     1  UNL1       -0.2706
      9 C         144.1532  139.4044  164.7177 C.3     1  UNL1        0.1374
     10 C         143.1365  138.5791  165.4494 C.3     1  UNL1        0.2734
     11 S         142.4977  139.1102  166.6983 S.O     1  UNL1        0.0356
     12 O         143.2165  139.0069  168.0108 O.co2   1  UNL1       -0.6809
     13 C         141.1400  139.7447  166.6347 C.3     1  UNL1        0.2470
     14 C         140.6738  140.6320  167.7508 C.ar    1  UNL1        0.0356
     15 C         141.0644  142.0801  167.7707 C.ar    1  UNL1        0.0032
     16 C         140.5983  142.9674  168.8866 C.ar    1  UNL1        0.0295
     17 C         139.7415  142.4066  169.9827 C.ar    1  UNL1        0.1401
     18 F         139.2753  143.2939  171.0987 F       1  UNL1       -0.2042
     19 C         139.3509  140.9585  169.9628 C.ar    1  UNL1        0.0295
     20 C         139.8170  140.0712  168.8468 C.ar    1  UNL1        0.0032
     21 C         140.2484  139.4919  165.4552 C.ar    1  UNL1        0.0356
     22 C         139.7726  138.1005  165.1593 C.ar    1  UNL1        0.0032
     23 C         138.8811  137.8477  163.9798 C.ar    1  UNL1        0.0295
     24 C         138.4653  138.9863  163.0962 C.ar    1  UNL1        0.1401
     25 F         137.5738  138.7335  161.9167 F       1  UNL1       -0.2042
     26 C         138.9411  140.3777  163.3921 C.ar    1  UNL1        0.0295
     27 C         139.8327  140.6305  164.5716 C.ar    1  UNL1        0.0032
     28 C         142.4165  143.0946  160.3169 C.3     1  UNL1        0.1020
     29 C         141.3554  144.1228  160.5753 C.3     1  UNL1        0.1308
     30 O         141.6613  145.5795  160.3887 O.3     1  UNL1       -0.3827
     31 H         142.5819  145.6822  160.1008 H       1  UNL1        0.2104
     32 C         139.9885  143.6946  161.0204 C.3     1  UNL1        0.0570
     33 C         139.5601  143.9118  162.4414 C.ar    1  UNL1       -0.0197
     34 C         138.1021  143.9108  162.7937 C.ar    1  UNL1       -0.0042
     35 C         137.6737  144.1281  164.2147 C.ar    1  UNL1       -0.0003
     36 C         138.7033  144.3463  165.2834 C.ar    1  UNL1       -0.0000
     37 C         140.1614  144.3472  164.9312 C.ar    1  UNL1       -0.0003
     38 C         140.5898  144.1300  163.5102 C.ar    1  UNL1       -0.0042
@<TRIPOS>UNITY_ATOM_ATTR
11 1
charge 1
12 1
charge -1
@<TRIPOS>BOND
     1     2     1    1
     2     2     3    1
     3     3     4    1
     4     4     9    1
     5     9    10    1
     6    10    11    1
     7    11    12    2
     8    11    13    1
     9    13    14    1
    10    14    15   ar
    11    15    16   ar
    12    16    17   ar
    13    17    18    1
    14    17    19   ar
    15    19    20   ar
    16    13    21    1
    17    21    22   ar
    18    22    23   ar
    19    23    24   ar
    20    24    25    1
    21    24    26   ar
    22    26    27   ar
    23     4     5    1
    24     5     6    1
    25     6     7    1
    26     6     8    1
    27     8    28    1
    28    28    29    1
    29    29    30    1
    30    29    32    1
    31    32    33    1
    32    33    34   ar
    33    34    35   ar
    34    35    36   ar
    35    36    37   ar
    36    37    38   ar
    37     8     2    1
    38    38    33   ar
    39    20    14   ar
    40    27    21   ar
    41    30    31    1
@<TRIPOS>MOLECULE
*****
 38 41 0 0 0
SMALL
GASTEIGER

@<TRIPOS>ATOM
      1 C         141.2398  140.2179  160.5524 C.3     1  UNL1        0.0188
      2 C         142.2429  140.7201  161.5483 C.3     1  UNL1        0.0736
      3 C         142.6965  139.8321  162.6688 C.3     1  UNL1        0.0884
      4 N         143.6996  140.3342  163.6647 N.3     1  UNL1       -0.2660
      5 C         144.2491  141.7243  163.5400 C.3     1  UNL1        0.0884
      6 C         143.7955  142.6123  162.4194 C.3     1  UNL1        0.0736
      7 C         144.3450  144.0025  162.2947 C.3     1  UNL1        0.0188
      8 N         142.7924  142.1102  161.4236 N.3     1  UNL1       -0.2706
      9 C         144.1531  139.4461  164.7853 C.3     1  UNL1        0.1374
     10 C         143.1616  138.5802  165.5043 C.3     1  UNL1        0.2734
     11 S         142.4962  139.0793  166.7525 S.O     1  UNL1        0.0356
     12 O         143.1801  138.9280  168.0789 O.co2   1  UNL1       -0.6809
     13 C         141.1469  139.7299  166.6743 C.3     1  UNL1        0.2470
     14 C         140.2610  139.4794  165.4900 C.ar    1  UNL1        0.0356
     15 C         139.7607  140.6319  164.6706 C.ar    1  UNL1        0.0032
     16 C         138.8749  140.3816  163.4863 C.ar    1  UNL1        0.0295
     17 C         138.4893  138.9787  163.1215 C.ar    1  UNL1        0.1401
     18 F         137.6034  138.7282  161.9372 F       1  UNL1       -0.2042
     19 C         138.9895  137.8262  163.9409 C.ar    1  UNL1        0.0295
     20 C         139.8753  138.0765  165.1252 C.ar    1  UNL1        0.0032
     21 C         140.6834  140.6308  167.7804 C.ar    1  UNL1        0.0356
     22 C         139.8126  140.0881  168.8747 C.ar    1  UNL1        0.0032
     23 C         139.3492  140.9891  169.9808 C.ar    1  UNL1        0.0295
     24 C         139.7565  142.4327  169.9927 C.ar    1  UNL1        0.1401
     25 F         139.2930  143.3336  171.0988 F       1  UNL1       -0.2042
     26 C         140.6272  142.9753  168.8985 C.ar    1  UNL1        0.0295
     27 C         141.0907  142.0744  167.7923 C.ar    1  UNL1        0.0032
     28 C         142.3388  142.9982  160.3030 C.3     1  UNL1        0.1020
     29 C         141.3319  144.0792  160.5632 C.3     1  UNL1        0.1308
     30 O         141.7105  145.5182  160.3741 O.3     1  UNL1       -0.3827
     31 H         142.6343  145.5740  160.0835 H       1  UNL1        0.2104
     32 C         139.9464  143.7210  161.0126 C.3     1  UNL1        0.0570
     33 C         139.5490  143.9155  162.4459 C.ar    1  UNL1       -0.0197
     34 C         138.0994  143.9010  162.8309 C.ar    1  UNL1       -0.0042
     35 C         137.7020  144.0955  164.2642 C.ar    1  UNL1       -0.0003
     36 C         138.7543  144.3045  165.3125 C.ar    1  UNL1       -0.0000
     37 C         140.2040  144.3190  164.9275 C.ar    1  UNL1       -0.0003
     38 C         140.6014  144.1245  163.4942 C.ar    1  UNL1       -0.0042
@<TRIPOS>UNITY_ATOM_ATTR
11 1
charge 1
12 1
charge -1
@<TRIPOS>BOND
     1     2     1    1
     2     2     3    1
     3     3     4    1
     4     4     9    1
     5     9    10    1
     6    10    11    1
     7    11    12    2
     8    11    13    1
     9    13    14    1
    10    14    15   ar
    11    15    16   ar
    12    16    17   ar
    13    17    18    1
    14    17    19   ar
    15    19    20   ar
    16    13    21    1
    17    21    22   ar
    18    22    23   ar
    19    23    24   ar
    20    24    25    1
    21    24    26   ar
    22    26    27   ar
    23     4     5    1
    24     5     6    1
    25     6     7    1
    26     6     8    1
    27     8    28    1
    28    28    29    1
    29    29    30    1
    30    29    32    1
    31    32    33    1
    32    33    34   ar
    33    34    35   ar
    34    35    36   ar
    35    36    37   ar
    36    37    38   ar
    37     8     2    1
    38    38    33   ar
    39    20    14   ar
    40    27    21   ar
    41    30    31    1
@<TRIPOS>MOLECULE
*****
 38 41 0 0 0
SMALL
GASTEIGER

@<TRIPOS>ATOM
      1 C         137.8439  143.6243  163.9606 C.3     1  UNL1        0.0188
      2 C         138.1474  142.9417  162.6599 C.3     1  UNL1        0.0736
      3 C         137.6461  141.5506  162.4080 C.3     1  UNL1        0.0884
      4 N         137.9495  140.8680  161.1073 N.3     1  UNL1       -0.2660
      5 C         138.7543  141.5765  160.0584 C.3     1  UNL1        0.0884
      6 C         139.2556  142.9676  160.3102 C.3     1  UNL1        0.0736
      7 C         140.0605  143.6762  159.2613 C.3     1  UNL1        0.0188
      8 N         138.9522  143.6502  161.6110 N.3     1  UNL1       -0.2706
      9 C         137.4481  139.4768  160.8555 C.3     1  UNL1        0.1374
     10 C         137.9894  138.3284  161.6543 C.3     1  UNL1        0.2734
     11 S         139.4676  138.1979  161.8733 S.O     1  UNL1        0.0356
     12 O         140.3323  137.5875  160.8103 O.co2   1  UNL1       -0.6809
     13 C         140.0812  138.6777  163.1552 C.3     1  UNL1        0.2470
     14 C         139.2958  138.6160  164.4318 C.ar    1  UNL1        0.0356
     15 C         138.9483  139.8803  165.1603 C.ar    1  UNL1        0.0032
     16 C         138.1630  139.8187  166.4368 C.ar    1  UNL1        0.0295
     17 C         137.7253  138.4928  166.9848 C.ar    1  UNL1        0.1401
     18 F         136.9399  138.4311  168.2613 F       1  UNL1       -0.2042
     19 C         138.0728  137.2285  166.2562 C.ar    1  UNL1        0.0295
     20 C         138.8581  137.2901  164.9797 C.ar    1  UNL1        0.0032
     21 C         141.4800  139.2192  163.1606 C.ar    1  UNL1        0.0356
     22 C         141.9294  140.1467  162.0707 C.ar    1  UNL1        0.0032
     23 C         143.3282  140.6882  162.0761 C.ar    1  UNL1        0.0295
     24 C         144.2777  140.3022  163.1714 C.ar    1  UNL1        0.1401
     25 F         145.6765  140.8437  163.1768 F       1  UNL1       -0.2042
     26 C         143.8283  139.3747  164.2612 C.ar    1  UNL1        0.0295
     27 C         142.4294  138.8332  164.2559 C.ar    1  UNL1        0.0032
     28 C         139.4536  145.0413  161.8628 C.3     1  UNL1        0.1020
     29 C         140.8069  145.2515  162.4745 C.3     1  UNL1        0.1308
     30 O         141.1478  146.5683  163.1071 O.3     1  UNL1       -0.3827
     31 H         140.3885  147.1676  163.0354 H       1  UNL1        0.2104
     32 C         141.8194  144.1450  162.4538 C.3     1  UNL1        0.0570
     33 C         142.3400  143.5804  163.7423 C.ar    1  UNL1       -0.0197
     34 C         141.4431  142.7540  164.6156 C.ar    1  UNL1       -0.0042
     35 C         141.9637  142.1894  165.9041 C.ar    1  UNL1       -0.0003
     36 C         143.3810  142.4512  166.3193 C.ar    1  UNL1       -0.0000
     37 C         144.2779  143.2777  165.4460 C.ar    1  UNL1       -0.0003
     38 C         143.7574  143.8423  164.1575 C.ar    1  UNL1       -0.0042
@<TRIPOS>UNITY_ATOM_ATTR
11 1
charge 1
12 1
charge -1
@<TRIPOS>BOND
     1     2     1    1
     2     2     3    1
     3     3     4    1
     4     4     9    1
     5     9    10    1
     6    10    11    1
     7    11    12    2
     8    11    13    1
     9    13    14    1
    10    14    15   ar
    11    15    16   ar
    12    16    17   ar
    13    17    18    1
    14    17    19   ar
    15    19    20   ar
    16    13    21    1
    17    21    22   ar
    18    22    23   ar
    19    23    24   ar
    20    24    25    1
    21    24    26   ar
    22    26    27   ar
    23     4     5    1
    24     5     6    1
    25     6     7    1
    26     6     8    1
    27     8    28    1
    28    28    29    1
    29    29    30    1
    30    29    32    1
    31    32    33    1
    32    33    34   ar
    33    34    35   ar
    34    35    36   ar
    35    36    37   ar
    36    37    38   ar
    37     8     2    1
    38    38    33   ar
    39    20    14   ar
    40    27    21   ar
    41    30    31    1
@<TRIPOS>MOLECULE
*****
 38 41 0 0 0
SMALL
GASTEIGER

@<TRIPOS>ATOM
      1 C         139.8965  141.3660  161.4155 C.3     1  UNL1        0.0188
      2 C         141.3217  140.9420  161.6127 C.3     1  UNL1        0.0736
      3 C         142.3432  141.9378  162.0760 C.3     1  UNL1        0.0884
      4 N         143.7685  141.5138  162.2732 N.3     1  UNL1       -0.2660
      5 C         144.1722  140.0939  162.0071 C.3     1  UNL1        0.0884
      6 C         143.1507  139.0981  161.5437 C.3     1  UNL1        0.0736
      7 C         143.5544  137.6781  161.2776 C.3     1  UNL1        0.0188
      8 N         141.7254  139.5221  161.3465 N.3     1  UNL1       -0.2706
      9 C         144.7900  142.5098  162.7365 C.3     1  UNL1        0.1374
     10 C         145.2958  142.4640  164.1479 C.3     1  UNL1        0.2734
     11 S         144.5729  143.2123  165.2283 S.O     1  UNL1        0.0356
     12 O         145.2437  144.3599  165.9235 O.co2   1  UNL1       -0.6809
     13 C         143.1793  142.8132  165.6136 C.3     1  UNL1        0.2470
     14 C         142.9628  141.7624  166.6619 C.ar    1  UNL1        0.0356
     15 C         142.8466  142.1553  168.1049 C.ar    1  UNL1        0.0032
     16 C         142.6301  141.1045  169.1532 C.ar    1  UNL1        0.0295
     17 C         142.5299  139.6609  168.7586 C.ar    1  UNL1        0.1401
     18 F         142.3134  138.6100  169.8069 F       1  UNL1       -0.2042
     19 C         142.6461  139.2680  167.3156 C.ar    1  UNL1        0.0295
     20 C         142.8625  140.3187  166.2673 C.ar    1  UNL1        0.0032
     21 C         142.0021  143.4649  164.9506 C.ar    1  UNL1        0.0356
     22 C         142.2055  144.6604  164.0677 C.ar    1  UNL1        0.0032
     23 C         141.0284  145.3121  163.4047 C.ar    1  UNL1        0.0295
     24 C         139.6478  144.7683  163.6246 C.ar    1  UNL1        0.1401
     25 F         138.4706  145.4200  162.9616 F       1  UNL1       -0.2042
     26 C         139.4444  143.5729  164.5074 C.ar    1  UNL1        0.0295
     27 C         140.6215  142.9211  165.1705 C.ar    1  UNL1        0.0032
     28 C         140.7039  138.5261  160.8832 C.3     1  UNL1        0.1020
     29 C         139.7748  137.8888  161.8735 C.3     1  UNL1        0.1308
     30 O         138.3516  137.6066  161.4927 O.3     1  UNL1       -0.3827
     31 H         138.1980  137.8952  160.5795 H       1  UNL1        0.2104
     32 C         140.2690  137.5336  163.2445 C.3     1  UNL1        0.0570
     33 C         139.5387  138.0303  164.4569 C.ar    1  UNL1       -0.0197
     34 C         138.6664  137.0962  165.2421 C.ar    1  UNL1       -0.0042
     35 C         137.9362  137.5929  166.4545 C.ar    1  UNL1       -0.0003
     36 C         138.0783  139.0237  166.8818 C.ar    1  UNL1       -0.0000
     37 C         138.9507  139.9578  166.0967 C.ar    1  UNL1       -0.0003
     38 C         139.6809  139.4611  164.8842 C.ar    1  UNL1       -0.0042
@<TRIPOS>UNITY_ATOM_ATTR
11 1
charge 1
12 1
charge -1
@<TRIPOS>BOND
     1     2     1    1
     2     2     3    1
     3     3     4    1
     4     4     9    1
     5     9    10    1
     6    10    11    1
     7    11    12    2
     8    11    13    1
     9    13    14    1
    10    14    15   ar
    11    15    16   ar
    12    16    17   ar
    13    17    18    1
    14    17    19   ar
    15    19    20   ar
    16    13    21    1
    17    21    22   ar
    18    22    23   ar
    19    23    24   ar
    20    24    25    1
    21    24    26   ar
    22    26    27   ar
    23     4     5    1
    24     5     6    1
    25     6     7    1
    26     6     8    1
    27     8    28    1
    28    28    29    1
    29    29    30    1
    30    29    32    1
    31    32    33    1
    32    33    34   ar
    33    34    35   ar
    34    35    36   ar
    35    36    37   ar
    36    37    38   ar
    37     8     2    1
    38    38    33   ar
    39    20    14   ar
    40    27    21   ar
    41    30    31    1
@<TRIPOS>MOLECULE
*****
 38 41 0 0 0
SMALL
GASTEIGER

@<TRIPOS>ATOM
      1 C         142.3920  145.5289  163.8004 C.3     1  UNL1        0.0188
      2 C         142.9904  144.4257  162.9788 C.3     1  UNL1        0.0736
      3 C         144.0416  143.5349  163.5714 C.3     1  UNL1        0.0884
      4 N         144.6400  142.4317  162.7498 N.3     1  UNL1       -0.2660
      5 C         144.1872  142.2194  161.3357 C.3     1  UNL1        0.0884
      6 C         143.1360  143.1103  160.7431 C.3     1  UNL1        0.0736
      7 C         142.6831  142.8981  159.3289 C.3     1  UNL1        0.0188
      8 N         142.5376  144.2135  161.5647 N.3     1  UNL1       -0.2706
      9 C         145.6913  141.5408  163.3425 C.3     1  UNL1        0.1374
     10 C         145.2903  140.3483  164.1594 C.3     1  UNL1        0.2734
     11 S         144.1239  139.5063  163.7348 S.O     1  UNL1        0.0356
     12 O         144.2735  138.5341  162.6022 O.co2   1  UNL1       -0.6809
     13 C         142.8079  139.6363  164.4428 C.3     1  UNL1        0.2470
     14 C         142.7643  140.1196  165.8621 C.ar    1  UNL1        0.0356
     15 C         142.7855  139.1326  166.9915 C.ar    1  UNL1        0.0032
     16 C         142.7420  139.6158  168.4108 C.ar    1  UNL1        0.0295
     17 C         142.6772  141.0861  168.7008 C.ar    1  UNL1        0.1401
     18 F         142.6337  141.5694  170.1202 F       1  UNL1       -0.2042
     19 C         142.6560  142.0731  167.5715 C.ar    1  UNL1        0.0295
     20 C         142.6996  141.5898  166.1521 C.ar    1  UNL1        0.0032
     21 C         141.5355  139.2830  163.7314 C.ar    1  UNL1        0.0356
     22 C         140.6613  138.1842  164.2592 C.ar    1  UNL1        0.0032
     23 C         139.3889  137.8309  163.5478 C.ar    1  UNL1        0.0295
     24 C         138.9905  138.5764  162.3086 C.ar    1  UNL1        0.1401
     25 F         137.7181  138.2231  161.5973 F       1  UNL1       -0.2042
     26 C         139.8646  139.6752  161.7808 C.ar    1  UNL1        0.0295
     27 C         141.1371  140.0285  162.4922 C.ar    1  UNL1        0.0032
     28 C         141.4863  145.1044  160.9720 C.3     1  UNL1        0.1020
     29 C         140.0422  144.7034  161.0326 C.3     1  UNL1        0.1308
     30 O         139.3650  144.1523  159.8128 O.3     1  UNL1       -0.3827
     31 H         139.9974  144.1219  159.0779 H       1  UNL1        0.2104
     32 C         139.2752  144.8534  162.3129 C.3     1  UNL1        0.0570
     33 C         138.8779  143.6374  163.0960 C.ar    1  UNL1       -0.0197
     34 C         137.6849  142.8312  162.6755 C.ar    1  UNL1       -0.0042
     35 C         137.2876  141.6151  163.4587 C.ar    1  UNL1       -0.0003
     36 C         138.0832  141.2053  164.6624 C.ar    1  UNL1       -0.0000
     37 C         139.2762  142.0115  165.0830 C.ar    1  UNL1       -0.0003
     38 C         139.6736  143.2275  164.2998 C.ar    1  UNL1       -0.0042
@<TRIPOS>UNITY_ATOM_ATTR
11 1
charge 1
12 1
charge -1
@<TRIPOS>BOND
     1     2     1    1
     2     2     3    1
     3     3     4    1
     4     4     9    1
     5     9    10    1
     6    10    11    1
     7    11    12    2
     8    11    13    1
     9    13    14    1
    10    14    15   ar
    11    15    16   ar
    12    16    17   ar
    13    17    18    1
    14    17    19   ar
    15    19    20   ar
    16    13    21    1
    17    21    22   ar
    18    22    23   ar
    19    23    24   ar
    20    24    25    1
    21    24    26   ar
    22    26    27   ar
    23     4     5    1
    24     5     6    1
    25     6     7    1
    26     6     8    1
    27     8    28    1
    28    28    29    1
    29    29    30    1
    30    29    32    1
    31    32    33    1
    32    33    34   ar
    33    34    35   ar
    34    35    36   ar
    35    36    37   ar
    36    37    38   ar
    37     8     2    1
    38    38    33   ar
    39    20    14   ar
    40    27    21   ar
    41    30    31    1
@<TRIPOS>MOLECULE
*****
 38 41 0 0 0
SMALL
GASTEIGER

@<TRIPOS>ATOM
      1 C         142.5894  142.8977  159.3713 C.3     1  UNL1        0.0188
      2 C         143.0698  143.1214  160.7746 C.3     1  UNL1        0.0736
      3 C         144.1373  142.2396  161.3514 C.3     1  UNL1        0.0884
      4 N         144.6176  142.4633  162.7547 N.3     1  UNL1       -0.2660
      5 C         144.0305  143.5687  163.5812 C.3     1  UNL1        0.0884
      6 C         142.9629  144.4505  163.0044 C.3     1  UNL1        0.0736
      7 C         142.3757  145.5560  163.8309 C.3     1  UNL1        0.0188
      8 N         142.4826  144.2268  161.6011 N.3     1  UNL1       -0.2706
      9 C         145.6852  141.5814  163.3315 C.3     1  UNL1        0.1374
     10 C         145.3067  140.3844  164.1525 C.3     1  UNL1        0.2734
     11 S         144.1586  139.5171  163.7289 S.O     1  UNL1        0.0356
     12 O         144.3290  138.5469  162.5976 O.co2   1  UNL1       -0.6809
     13 C         142.8400  139.6200  164.4365 C.3     1  UNL1        0.2470
     14 C         141.5758  139.2352  163.7266 C.ar    1  UNL1        0.0356
     15 C         140.7257  138.1204  164.2600 C.ar    1  UNL1        0.0032
     16 C         139.4615  137.7356  163.5502 C.ar    1  UNL1        0.0295
     17 C         139.0476  138.4657  162.3070 C.ar    1  UNL1        0.1401
     18 F         137.7834  138.0809  161.5971 F       1  UNL1       -0.2042
     19 C         139.8977  139.5804  161.7736 C.ar    1  UNL1        0.0295
     20 C         141.1618  139.9652  162.4834 C.ar    1  UNL1        0.0032
     21 C         142.7855  140.1076  165.8540 C.ar    1  UNL1        0.0356
     22 C         142.7957  139.1239  166.9864 C.ar    1  UNL1        0.0032
     23 C         142.7412  139.6115  168.4039 C.ar    1  UNL1        0.0295
     24 C         142.6766  141.0828  168.6890 C.ar    1  UNL1        0.1401
     25 F         142.6222  141.5704  170.1064 F       1  UNL1       -0.2042
     26 C         142.6665  142.0664  167.5566 C.ar    1  UNL1        0.0295
     27 C         142.7210  141.5788  166.1391 C.ar    1  UNL1        0.0032
     28 C         141.4150  145.1087  161.0243 C.3     1  UNL1        0.1020
     29 C         139.9767  144.6884  161.0933 C.3     1  UNL1        0.1308
     30 O         139.2923  144.1529  159.8706 O.3     1  UNL1       -0.3827
     31 H         139.9164  144.1450  159.1281 H       1  UNL1        0.2104
     32 C         139.2229  144.8035  162.3849 C.3     1  UNL1        0.0570
     33 C         138.8586  143.5679  163.1534 C.ar    1  UNL1       -0.0197
     34 C         139.6475  143.1809  164.3691 C.ar    1  UNL1       -0.0042
     35 C         139.2831  141.9453  165.1375 C.ar    1  UNL1       -0.0003
     36 C         138.1300  141.0967  164.6904 C.ar    1  UNL1       -0.0000
     37 C         137.3410  141.4837  163.4747 C.ar    1  UNL1       -0.0003
     38 C         137.7053  142.7193  162.7062 C.ar    1  UNL1       -0.0042
@<TRIPOS>UNITY_ATOM_ATTR
11 1
charge 1
12 1
charge -1
@<TRIPOS>BOND
     1     2     1    1
     2     2     3    1
     3     3     4    1
     4     4     9    1
     5     9    10    1
     6    10    11    1
     7    11    12    2
     8    11    13    1
     9    13    14    1
    10    14    15   ar
    11    15    16   ar
    12    16    17   ar
    13    17    18    1
    14    17    19   ar
    15    19    20   ar
    16    13    21    1
    17    21    22   ar
    18    22    23   ar
    19    23    24   ar
    20    24    25    1
    21    24    26   ar
    22    26    27   ar
    23     4     5    1
    24     5     6    1
    25     6     7    1
    26     6     8    1
    27     8    28    1
    28    28    29    1
    29    29    30    1
    30    29    32    1
    31    32    33    1
    32    33    34   ar
    33    34    35   ar
    34    35    36   ar
    35    36    37   ar
    36    37    38   ar
    37     8     2    1
    38    38    33   ar
    39    20    14   ar
    40    27    21   ar
    41    30    31    1
@<TRIPOS>MOLECULE
*****
 38 41 0 0 0
SMALL
GASTEIGER

@<TRIPOS>ATOM
      1 C         140.1281  142.9342  159.1259 C.3     1  UNL1        0.0188
      2 C         139.3643  142.4243  160.3119 C.3     1  UNL1        0.0736
      3 C         138.9665  140.9798  160.3832 C.3     1  UNL1        0.0884
      4 N         138.2027  140.4699  161.5692 N.3     1  UNL1       -0.2660
      5 C         137.8366  141.4045  162.6838 C.3     1  UNL1        0.0884
      6 C         138.2344  142.8490  162.6125 C.3     1  UNL1        0.0736
      7 C         137.8683  143.7836  163.7272 C.3     1  UNL1        0.0188
      8 N         138.9982  143.3589  161.4265 N.3     1  UNL1       -0.2706
      9 C         137.8049  139.0253  161.6405 C.3     1  UNL1        0.1374
     10 C         138.4816  138.1083  162.6158 C.3     1  UNL1        0.2734
     11 S         139.9768  138.1114  162.7347 S.O     1  UNL1        0.0356
     12 O         140.7993  137.1957  161.8774 O.co2   1  UNL1       -0.6809
     13 C         140.6496  139.0302  163.7110 C.3     1  UNL1        0.2470
     14 C         140.0704  139.2228  165.0813 C.ar    1  UNL1        0.0356
     15 C         138.6133  138.9615  165.3231 C.ar    1  UNL1        0.0032
     16 C         138.0341  139.1540  166.6933 C.ar    1  UNL1        0.0295
     17 C         138.9120  139.6079  167.8216 C.ar    1  UNL1        0.1401
     18 F         138.3328  139.8004  169.1919 F       1  UNL1       -0.2042
     19 C         140.3691  139.8692  167.5798 C.ar    1  UNL1        0.0295
     20 C         140.9483  139.6767  166.2096 C.ar    1  UNL1        0.0032
     21 C         141.9015  139.7565  163.3171 C.ar    1  UNL1        0.0356
     22 C         143.2364  139.2595  163.7875 C.ar    1  UNL1        0.0032
     23 C         144.4884  139.9857  163.3935 C.ar    1  UNL1        0.0295
     24 C         144.4055  141.2089  162.5293 C.ar    1  UNL1        0.1401
     25 F         145.6574  141.9351  162.1354 F       1  UNL1       -0.2042
     26 C         143.0707  141.7059  162.0590 C.ar    1  UNL1        0.0295
     27 C         141.8187  140.9796  162.4529 C.ar    1  UNL1        0.0032
     28 C         139.3960  144.8035  161.3553 C.3     1  UNL1        0.1020
     29 C         140.7727  145.2240  161.7769 C.3     1  UNL1        0.1308
     30 O         141.8740  145.3112  160.7622 O.3     1  UNL1       -0.3827
     31 H         141.5298  145.0647  159.8895 H       1  UNL1        0.2104
     32 C         141.0482  145.5572  163.2132 C.3     1  UNL1        0.0570
     33 C         141.9464  144.6752  164.0289 C.ar    1  UNL1       -0.0197
     34 C         141.3606  143.5764  164.8652 C.ar    1  UNL1       -0.0042
     35 C         142.2588  142.6944  165.6808 C.ar    1  UNL1       -0.0003
     36 C         143.7429  142.9112  165.6601 C.ar    1  UNL1       -0.0000
     37 C         144.3288  144.0100  164.8238 C.ar    1  UNL1       -0.0003
     38 C         143.4306  144.8920  164.0081 C.ar    1  UNL1       -0.0042
@<TRIPOS>UNITY_ATOM_ATTR
11 1
charge 1
12 1
charge -1
@<TRIPOS>BOND
     1     2     1    1
     2     2     3    1
     3     3     4    1
     4     4     9    1
     5     9    10    1
     6    10    11    1
     7    11    12    2
     8    11    13    1
     9    13    14    1
    10    14    15   ar
    11    15    16   ar
    12    16    17   ar
    13    17    18    1
    14    17    19   ar
    15    19    20   ar
    16    13    21    1
    17    21    22   ar
    18    22    23   ar
    19    23    24   ar
    20    24    25    1
    21    24    26   ar
    22    26    27   ar
    23     4     5    1
    24     5     6    1
    25     6     7    1
    26     6     8    1
    27     8    28    1
    28    28    29    1
    29    29    30    1
    30    29    32    1
    31    32    33    1
    32    33    34   ar
    33    34    35   ar
    34    35    36   ar
    35    36    37   ar
    36    37    38   ar
    37     8     2    1
    38    38    33   ar
    39    20    14   ar
    40    27    21   ar
    41    30    31    1
@<TRIPOS>MOLECULE
*****
 38 41 0 0 0
SMALL
GASTEIGER

@<TRIPOS>ATOM
      1 C         143.6919  145.0386  163.2259 C.3     1  UNL1        0.0188
      2 C         143.5110  143.5694  162.9836 C.3     1  UNL1        0.0736
      3 C         143.9804  142.5773  164.0059 C.3     1  UNL1        0.0884
      4 N         143.7994  141.1081  163.7636 N.3     1  UNL1       -0.2660
      5 C         143.1491  140.6311  162.4989 C.3     1  UNL1        0.0884
      6 C         142.6797  141.6232  161.4766 C.3     1  UNL1        0.0736
      7 C         142.0293  141.1462  160.2118 C.3     1  UNL1        0.0188
      8 N         142.8606  143.0924  161.7189 N.3     1  UNL1       -0.2706
      9 C         144.2688  140.1159  164.7860 C.3     1  UNL1        0.1374
     10 C         143.3486  139.0268  165.2520 C.3     1  UNL1        0.2734
     11 S         142.5845  139.1874  166.5327 S.O     1  UNL1        0.0356
     12 O         143.2045  138.7700  167.8334 O.co2   1  UNL1       -0.6809
     13 C         141.2005  139.7654  166.5129 C.3     1  UNL1        0.2470
     14 C         140.2898  139.4914  165.3529 C.ar    1  UNL1        0.0356
     15 C         139.9633  140.5862  164.3809 C.ar    1  UNL1        0.0032
     16 C         139.0527  140.3122  163.2208 C.ar    1  UNL1        0.0295
     17 C         138.4686  138.9435  163.0328 C.ar    1  UNL1        0.1401
     18 F         137.5579  138.6695  161.8728 F       1  UNL1       -0.2042
     19 C         138.7951  137.8487  164.0049 C.ar    1  UNL1        0.0295
     20 C         139.7057  138.1227  165.1649 C.ar    1  UNL1        0.0032
     21 C         140.7271  140.6173  167.6531 C.ar    1  UNL1        0.0356
     22 C         141.1424  142.0563  167.7371 C.ar    1  UNL1        0.0032
     23 C         140.6690  142.9082  168.8773 C.ar    1  UNL1        0.0295
     24 C         139.7804  142.3213  169.9336 C.ar    1  UNL1        0.1401
     25 F         139.3070  143.1732  171.0737 F       1  UNL1       -0.2042
     26 C         139.3651  140.8824  169.8497 C.ar    1  UNL1        0.0295
     27 C         139.8385  140.0304  168.7094 C.ar    1  UNL1        0.0032
     28 C         142.3912  144.0846  160.6965 C.3     1  UNL1        0.1020
     29 C         140.9550  144.5167  160.6749 C.3     1  UNL1        0.1308
     30 O         140.0561  144.0767  159.5576 O.3     1  UNL1       -0.3827
     31 H         140.5570  143.5228  158.9386 H       1  UNL1        0.2104
     32 C         140.4176  145.3888  161.7707 C.3     1  UNL1        0.0570
     33 C         139.5956  144.7881  162.8723 C.ar    1  UNL1       -0.0197
     34 C         140.1179  144.7790  164.2783 C.ar    1  UNL1       -0.0042
     35 C         139.2959  144.1784  165.3799 C.ar    1  UNL1       -0.0003
     36 C         137.9515  143.5869  165.0755 C.ar    1  UNL1       -0.0000
     37 C         137.4291  143.5960  163.6694 C.ar    1  UNL1       -0.0003
     38 C         138.2511  144.1966  162.5678 C.ar    1  UNL1       -0.0042
@<TRIPOS>UNITY_ATOM_ATTR
11 1
charge 1
12 1
charge -1
@<TRIPOS>BOND
     1     2     1    1
     2     2     3    1
     3     3     4    1
     4     4     9    1
     5     9    10    1
     6    10    11    1
     7    11    12    2
     8    11    13    1
     9    13    14    1
    10    14    15   ar
    11    15    16   ar
    12    16    17   ar
    13    17    18    1
    14    17    19   ar
    15    19    20   ar
    16    13    21    1
    17    21    22   ar
    18    22    23   ar
    19    23    24   ar
    20    24    25    1
    21    24    26   ar
    22    26    27   ar
    23     4     5    1
    24     5     6    1
    25     6     7    1
    26     6     8    1
    27     8    28    1
    28    28    29    1
    29    29    30    1
    30    29    32    1
    31    32    33    1
    32    33    34   ar
    33    34    35   ar
    34    35    36   ar
    35    36    37   ar
    36    37    38   ar
    37     8     2    1
    38    38    33   ar
    39    20    14   ar
    40    27    21   ar
    41    30    31    1
