@<TRIPOS>MOLECULE
*****
 34 37 0 0 0
SMALL
GASTEIGER

@<TRIPOS>ATOM
      1 C         141.6396  143.6780  162.0924 C.3     1  UNL1        0.1751
      2 C         141.9436  143.9157  160.6429 C.ar    1  UNL1        0.0089
      3 C         142.8847  143.2393  159.6907 C.ar    1  UNL1       -0.0021
      4 C         142.9756  143.7055  158.2680 C.ar    1  UNL1       -0.0003
      5 C         142.1255  144.8483  157.7974 C.ar    1  UNL1        0.0001
      6 C         141.1844  145.5248  158.7496 C.ar    1  UNL1        0.0043
      7 C         141.0935  145.0585  160.1724 C.ar    1  UNL1        0.0516
      8 C         140.2641  145.5270  161.3311 C.2     1  UNL1        0.2493
      9 O         139.2714  146.6513  161.3072 O.2     1  UNL1       -0.2699
     10 N         140.6016  144.6739  162.5178 N.am    1  UNL1       -0.2657
     11 O         141.7493  141.2203  162.9276 O.2     1  UNL1       -0.2729
     12 C         142.2639  142.6287  162.9637 C.2     1  UNL1        0.2451
     13 N         143.4032  142.9879  163.8711 N.am    1  UNL1       -0.2988
     14 H         143.7410  143.9123  163.8948 H       1  UNL1        0.1498
     15 C         144.0276  141.9385  164.7424 C.3     1  UNL1        0.1164
     16 C         143.2712  141.3912  165.9163 C.ar    1  UNL1       -0.0024
     17 C         143.0399  139.9141  166.0370 C.ar    1  UNL1        0.0005
     18 C         142.2835  139.3668  167.2110 C.ar    1  UNL1        0.0369
     19 C         141.7583  140.2966  168.2644 C.ar    1  UNL1        0.1468
     20 C         141.9896  141.7738  168.1438 C.ar    1  UNL1        0.0369
     21 C         142.7460  142.3211  166.9697 C.ar    1  UNL1        0.0005
     22 O         141.0019  139.7493  169.4384 O.3     1  UNL1       -0.4045
     23 C         139.6698  140.3305  169.8095 C.3     1  UNL1        0.5753
     24 F         138.3378  140.9118  170.1805 F       1  UNL1       -0.1328
     25 F         140.2617  140.8799  171.0735 F       1  UNL1       -0.1328
     26 F         139.0780  139.7811  168.5454 F       1  UNL1       -0.1328
     27 C         140.0057  144.7952  163.8890 C.3     1  UNL1        0.1024
     28 C         138.7173  144.0980  164.2112 C.3     1  UNL1        0.0872
     29 C         138.6579  142.5992  164.2221 C.ar    1  UNL1        0.1409
     30 N         139.3486  141.8291  165.3083 N.ar    1  UNL1       -0.2291
     31 C         139.2892  140.3303  165.3191 C.ar    1  UNL1        0.1018
     32 C         138.5392  139.6016  164.2437 C.ar    1  UNL1        0.0413
     33 C         137.8485  140.3718  163.1575 C.ar    1  UNL1        0.1018
     34 N         137.9079  141.8706  163.1467 N.ar    1  UNL1       -0.2291
@<TRIPOS>BOND
     1    11    12    2
     2    12    13   am
     3    13    15    1
     4    15    16    1
     5    16    17   ar
     6    17    18   ar
     7    18    19   ar
     8    19    22    1
     9    22    23    1
    10    23    24    1
    11    23    25    1
    12    23    26    1
    13    19    20   ar
    14    20    21   ar
    15    12     1    1
    16     1     2    1
    17     2     3   ar
    18     3     4   ar
    19     4     5   ar
    20     5     6   ar
    21     6     7   ar
    22     7     8    1
    23     8     9    2
    24     8    10   am
    25    10    27    1
    26    27    28    1
    27    28    29    1
    28    29    30   ar
    29    30    31   ar
    30    31    32   ar
    31    32    33   ar
    32    33    34   ar
    33    21    16   ar
    34    10     1    1
    35    34    29   ar
    36     7     2   ar
    37    13    14    1
@<TRIPOS>MOLECULE
*****
 34 37 0 0 0
SMALL
GASTEIGER

@<TRIPOS>ATOM
      1 C         141.0631  141.1067  166.6929 C.3     1  UNL1        0.1751
      2 C         141.1299  141.1004  168.1914 C.ar    1  UNL1        0.0089
      3 C         140.4201  141.9158  169.2312 C.ar    1  UNL1       -0.0021
      4 C         140.6966  141.6802  170.6865 C.ar    1  UNL1       -0.0003
      5 C         141.6828  140.6292  171.1020 C.ar    1  UNL1        0.0001
      6 C         142.3926  139.8138  170.0622 C.ar    1  UNL1        0.0043
      7 C         142.1162  140.0494  168.6069 C.ar    1  UNL1        0.0516
      8 C         142.6589  139.4062  167.3652 C.2     1  UNL1        0.2493
      9 O         143.6742  138.3032  167.3153 O.2     1  UNL1       -0.2699
     10 N         142.0080  140.0597  166.1823 N.am    1  UNL1       -0.2657
     11 O         138.8397  141.5465  165.4227 O.2     1  UNL1       -0.2729
     12 C         140.2024  142.0029  165.8525 C.2     1  UNL1        0.2451
     13 N         140.7044  143.3555  165.4420 N.am    1  UNL1       -0.2988
     14 H         141.5988  143.6551  165.7240 H       1  UNL1        0.1498
     15 C         139.8438  144.2516  164.6016 C.3     1  UNL1        0.1164
     16 C         140.0357  144.2968  163.1147 C.ar    1  UNL1       -0.0024
     17 C         140.2567  145.6112  162.4265 C.ar    1  UNL1        0.0005
     18 C         140.4486  145.6563  160.9395 C.ar    1  UNL1        0.0369
     19 C         140.4195  144.3870  160.1406 C.ar    1  UNL1        0.1468
     20 C         140.1985  143.0727  160.8288 C.ar    1  UNL1        0.0369
     21 C         140.0066  143.0276  162.3159 C.ar    1  UNL1        0.0005
     22 O         140.6114  144.4322  158.6537 O.3     1  UNL1       -0.4045
     23 C         141.5684  145.4173  158.0505 C.3     1  UNL1        0.5753
     24 F         142.5253  146.4024  157.4473 F       1  UNL1       -0.1328
     25 F         142.7119  144.4990  158.3650 F       1  UNL1       -0.1328
     26 F         140.4248  146.3356  157.7360 F       1  UNL1       -0.1328
     27 C         142.2582  139.7249  164.7417 C.3     1  UNL1        0.1024
     28 C         143.4991  140.2214  164.0609 C.3     1  UNL1        0.0872
     29 C         143.6198  141.6682  163.6835 C.ar    1  UNL1        0.1409
     30 N         143.8066  142.7080  164.7483 N.ar    1  UNL1       -0.2291
     31 C         143.9272  144.1547  164.3709 C.ar    1  UNL1        0.1018
     32 C         143.8611  144.5616  162.9286 C.ar    1  UNL1        0.0413
     33 C         143.6743  143.5218  161.8638 C.ar    1  UNL1        0.1018
     34 N         143.5537  142.0751  162.2412 N.ar    1  UNL1       -0.2291
@<TRIPOS>BOND
     1    11    12    2
     2    12    13   am
     3    13    15    1
     4    15    16    1
     5    16    17   ar
     6    17    18   ar
     7    18    19   ar
     8    19    22    1
     9    22    23    1
    10    23    24    1
    11    23    25    1
    12    23    26    1
    13    19    20   ar
    14    20    21   ar
    15    12     1    1
    16     1     2    1
    17     2     3   ar
    18     3     4   ar
    19     4     5   ar
    20     5     6   ar
    21     6     7   ar
    22     7     8    1
    23     8     9    2
    24     8    10   am
    25    10    27    1
    26    27    28    1
    27    28    29    1
    28    29    30   ar
    29    30    31   ar
    30    31    32   ar
    31    32    33   ar
    32    33    34   ar
    33    21    16   ar
    34    10     1    1
    35    34    29   ar
    36     7     2   ar
    37    13    14    1
@<TRIPOS>MOLECULE
*****
 34 37 0 0 0
SMALL
GASTEIGER

@<TRIPOS>ATOM
      1 C         140.1724  138.4226  162.6867 C.3     1  UNL1        0.1751
      2 C         141.6189  138.4698  162.2924 C.ar    1  UNL1        0.0089
      3 C         142.8786  138.5394  163.1037 C.ar    1  UNL1       -0.0021
      4 C         144.2117  138.5749  162.4171 C.ar    1  UNL1       -0.0003
      5 C         144.2852  138.5407  160.9193 C.ar    1  UNL1        0.0001
      6 C         143.0255  138.4711  160.1080 C.ar    1  UNL1        0.0043
      7 C         141.6923  138.4356  160.7946 C.ar    1  UNL1        0.0516
      8 C         140.2912  138.3673  160.2632 C.2     1  UNL1        0.2493
      9 O         139.8985  138.3160  158.8164 O.2     1  UNL1       -0.2699
     10 N         139.3519  138.3593  161.4326 N.am    1  UNL1       -0.2657
     11 O         139.8066  137.2313  164.9664 O.2     1  UNL1       -0.2729
     12 C         139.6399  138.4364  164.0889 C.2     1  UNL1        0.2451
     13 N         138.9407  139.6553  164.6138 N.am    1  UNL1       -0.2988
     14 H         138.8313  140.4463  164.0379 H       1  UNL1        0.1498
     15 C         138.4083  139.6691  166.0161 C.3     1  UNL1        0.1164
     16 C         139.2565  140.1964  167.1351 C.ar    1  UNL1       -0.0024
     17 C         140.3889  141.1348  166.8400 C.ar    1  UNL1        0.0005
     18 C         141.2371  141.6621  167.9591 C.ar    1  UNL1        0.0369
     19 C         140.9529  141.2511  169.3735 C.ar    1  UNL1        0.1468
     20 C         139.8205  140.3127  169.6687 C.ar    1  UNL1        0.0369
     21 C         138.9722  139.7854  168.5494 C.ar    1  UNL1        0.0005
     22 O         141.8011  141.7784  170.4926 O.3     1  UNL1       -0.4045
     23 C         143.1960  142.2554  170.2159 C.3     1  UNL1        0.5753
     24 F         144.5910  142.7324  169.9391 F       1  UNL1       -0.1328
     25 F         143.6526  140.8343  170.0678 F       1  UNL1       -0.1328
     26 F         142.7395  143.6765  170.3639 F       1  UNL1       -0.1328
     27 C         137.8548  138.2986  161.3606 C.3     1  UNL1        0.1024
     28 C         137.0691  139.5333  161.0319 C.3     1  UNL1        0.0872
     29 C         137.5742  140.8796  161.4590 C.ar    1  UNL1        0.1409
     30 N         137.1436  141.4596  162.7736 N.ar    1  UNL1       -0.2291
     31 C         137.6486  142.8059  163.2008 C.ar    1  UNL1        0.1018
     32 C         138.5843  143.5721  162.3133 C.ar    1  UNL1        0.0413
     33 C         139.0148  142.9920  160.9987 C.ar    1  UNL1        0.1018
     34 N         138.5097  141.6458  160.5716 N.ar    1  UNL1       -0.2291
@<TRIPOS>BOND
     1    11    12    2
     2    12    13   am
     3    13    15    1
     4    15    16    1
     5    16    17   ar
     6    17    18   ar
     7    18    19   ar
     8    19    22    1
     9    22    23    1
    10    23    24    1
    11    23    25    1
    12    23    26    1
    13    19    20   ar
    14    20    21   ar
    15    12     1    1
    16     1     2    1
    17     2     3   ar
    18     3     4   ar
    19     4     5   ar
    20     5     6   ar
    21     6     7   ar
    22     7     8    1
    23     8     9    2
    24     8    10   am
    25    10    27    1
    26    27    28    1
    27    28    29    1
    28    29    30   ar
    29    30    31   ar
    30    31    32   ar
    31    32    33   ar
    32    33    34   ar
    33    21    16   ar
    34    10     1    1
    35    34    29   ar
    36     7     2   ar
    37    13    14    1
@<TRIPOS>MOLECULE
*****
 34 37 0 0 0
SMALL
GASTEIGER

@<TRIPOS>ATOM
      1 C         140.4770  138.7601  161.3296 C.3     1  UNL1        0.1751
      2 C         141.1563  139.0178  160.0173 C.ar    1  UNL1        0.0089
      3 C         142.5834  138.8697  159.5797 C.ar    1  UNL1       -0.0021
      4 C         142.9757  139.2116  158.1729 C.ar    1  UNL1       -0.0003
      5 C         141.9410  139.7015  157.2037 C.ar    1  UNL1        0.0001
      6 C         140.5140  139.8496  157.6413 C.ar    1  UNL1        0.0043
      7 C         140.1216  139.5077  159.0481 C.ar    1  UNL1        0.0516
      8 C         138.8028  139.5528  159.7614 C.2     1  UNL1        0.2493
      9 O         137.4942  139.9841  159.1687 O.2     1  UNL1       -0.2699
     10 N         139.0225  139.0907  161.1715 N.am    1  UNL1       -0.2657
     11 O         140.9909  136.8215  162.9812 O.2     1  UNL1       -0.2729
     12 C         141.1365  138.2596  162.5804 C.2     1  UNL1        0.2451
     13 N         141.9416  139.1973  163.4306 N.am    1  UNL1       -0.2988
     14 H         142.0372  140.1411  163.1676 H       1  UNL1        0.1498
     15 C         142.6011  138.6967  164.6814 C.3     1  UNL1        0.1164
     16 C         142.0721  139.1070  166.0237 C.ar    1  UNL1       -0.0024
     17 C         140.6437  139.5421  166.1660 C.ar    1  UNL1        0.0005
     18 C         140.1148  139.9523  167.5084 C.ar    1  UNL1        0.0369
     19 C         141.0143  139.9274  168.7086 C.ar    1  UNL1        0.1468
     20 C         142.4428  139.4923  168.5663 C.ar    1  UNL1        0.0369
     21 C         142.9717  139.0820  167.2238 C.ar    1  UNL1        0.0005
     22 O         140.4854  140.3377  170.0509 O.3     1  UNL1       -0.4045
     23 C         139.9581  141.7267  170.2567 C.3     1  UNL1        0.5753
     24 F         139.4307  143.1158  170.4626 F       1  UNL1       -0.1328
     25 F         138.5539  141.2026  170.1965 F       1  UNL1       -0.1328
     26 F         141.3622  142.2509  170.3169 F       1  UNL1       -0.1328
     27 C         137.9720  138.9788  162.2364 C.3     1  UNL1        0.1024
     28 C         138.0219  139.8773  163.4364 C.3     1  UNL1        0.0872
     29 C         138.4207  141.3150  163.2809 C.ar    1  UNL1        0.1409
     30 N         137.3808  142.3536  162.9810 N.ar    1  UNL1       -0.2291
     31 C         137.7796  143.7912  162.8254 C.ar    1  UNL1        0.1018
     32 C         139.2184  144.1902  162.9698 C.ar    1  UNL1        0.0413
     33 C         140.2582  143.1516  163.2697 C.ar    1  UNL1        0.1018
     34 N         139.8594  141.7140  163.4252 N.ar    1  UNL1       -0.2291
@<TRIPOS>BOND
     1    11    12    2
     2    12    13   am
     3    13    15    1
     4    15    16    1
     5    16    17   ar
     6    17    18   ar
     7    18    19   ar
     8    19    22    1
     9    22    23    1
    10    23    24    1
    11    23    25    1
    12    23    26    1
    13    19    20   ar
    14    20    21   ar
    15    12     1    1
    16     1     2    1
    17     2     3   ar
    18     3     4   ar
    19     4     5   ar
    20     5     6   ar
    21     6     7   ar
    22     7     8    1
    23     8     9    2
    24     8    10   am
    25    10    27    1
    26    27    28    1
    27    28    29    1
    28    29    30   ar
    29    30    31   ar
    30    31    32   ar
    31    32    33   ar
    32    33    34   ar
    33    21    16   ar
    34    10     1    1
    35    34    29   ar
    36     7     2   ar
    37    13    14    1
@<TRIPOS>MOLECULE
*****
 34 37 0 0 0
SMALL
GASTEIGER

@<TRIPOS>ATOM
      1 C         138.7048  141.8735  162.1145 C.3     1  UNL1        0.1751
      2 C         139.3289  143.1719  161.6966 C.ar    1  UNL1        0.0089
      3 C         139.7739  144.3702  162.4815 C.ar    1  UNL1       -0.0021
      4 C         140.3767  145.5480  161.7749 C.ar    1  UNL1       -0.0003
      5 C         140.5345  145.5275  160.2833 C.ar    1  UNL1        0.0001
      6 C         140.0894  144.3293  159.4984 C.ar    1  UNL1        0.0043
      7 C         139.4866  143.1515  160.2051 C.ar    1  UNL1        0.0516
      8 C         138.9600  141.8404  159.7012 C.2     1  UNL1        0.2493
      9 O         138.9231  141.3971  158.2687 O.2     1  UNL1       -0.2699
     10 N         138.4768  141.0506  160.8813 N.am    1  UNL1       -0.2657
     11 O         137.3985  142.2845  164.3224 O.2     1  UNL1       -0.2729
     12 C         138.3678  141.4691  163.5191 C.2     1  UNL1        0.2451
     13 N         139.0003  140.2490  164.1205 N.am    1  UNL1       -0.2988
     14 H         139.6365  139.7137  163.5933 H       1  UNL1        0.1498
     15 C         138.6633  139.8445  165.5251 C.3     1  UNL1        0.1164
     16 C         139.4380  140.4148  166.6760 C.ar    1  UNL1       -0.0024
     17 C         140.3396  141.5944  166.4622 C.ar    1  UNL1        0.0005
     18 C         141.1142  142.1645  167.6132 C.ar    1  UNL1        0.0369
     19 C         140.9874  141.5552  168.9780 C.ar    1  UNL1        0.1468
     20 C         140.0858  140.3756  169.1918 C.ar    1  UNL1        0.0369
     21 C         139.3111  139.8054  168.0408 C.ar    1  UNL1        0.0005
     22 O         141.7620  142.1255  170.1289 O.3     1  UNL1       -0.4045
     23 C         143.2355  142.3714  169.9928 C.3     1  UNL1        0.5753
     24 F         144.7089  142.6174  169.8568 F       1  UNL1       -0.1328
     25 F         143.4028  141.0205  169.3627 F       1  UNL1       -0.1328
     26 F         143.0682  143.7223  170.6230 F       1  UNL1       -0.1328
     27 C         137.8718  139.6788  160.8362 C.3     1  UNL1        0.1024
     28 C         138.7516  138.4765  160.6619 C.3     1  UNL1        0.0872
     29 C         139.9556  138.2948  161.5380 C.ar    1  UNL1        0.1409
     30 N         141.2363  139.0032  161.2089 N.ar    1  UNL1       -0.2291
     31 C         142.4403  138.8215  162.0849 C.ar    1  UNL1        0.1018
     32 C         142.3636  137.9316  163.2901 C.ar    1  UNL1        0.0413
     33 C         141.0829  137.2233  163.6191 C.ar    1  UNL1        0.1018
     34 N         139.8790  137.4050  162.7430 N.ar    1  UNL1       -0.2291
@<TRIPOS>BOND
     1    11    12    2
     2    12    13   am
     3    13    15    1
     4    15    16    1
     5    16    17   ar
     6    17    18   ar
     7    18    19   ar
     8    19    22    1
     9    22    23    1
    10    23    24    1
    11    23    25    1
    12    23    26    1
    13    19    20   ar
    14    20    21   ar
    15    12     1    1
    16     1     2    1
    17     2     3   ar
    18     3     4   ar
    19     4     5   ar
    20     5     6   ar
    21     6     7   ar
    22     7     8    1
    23     8     9    2
    24     8    10   am
    25    10    27    1
    26    27    28    1
    27    28    29    1
    28    29    30   ar
    29    30    31   ar
    30    31    32   ar
    31    32    33   ar
    32    33    34   ar
    33    21    16   ar
    34    10     1    1
    35    34    29   ar
    36     7     2   ar
    37    13    14    1
@<TRIPOS>MOLECULE
*****
 34 37 0 0 0
SMALL
GASTEIGER

@<TRIPOS>ATOM
      1 C         141.4842  141.0141  166.7123 C.3     1  UNL1        0.1751
      2 C         141.8032  141.4680  168.1059 C.ar    1  UNL1        0.0089
      3 C         142.9246  142.2959  168.6599 C.ar    1  UNL1       -0.0021
      4 C         142.9825  142.5932  170.1290 C.ar    1  UNL1       -0.0003
      5 C         141.9190  142.0626  171.0441 C.ar    1  UNL1        0.0001
      6 C         140.7976  141.2347  170.4901 C.ar    1  UNL1        0.0043
      7 C         140.7396  140.9374  169.0210 C.ar    1  UNL1        0.0516
      8 C         139.7634  140.1556  168.1929 C.2     1  UNL1        0.2493
      9 O         138.5415  139.4502  168.7023 O.2     1  UNL1       -0.2699
     10 N         140.2236  140.2030  166.7660 N.am    1  UNL1       -0.2657
     11 O         143.5667  140.5837  165.2198 O.2     1  UNL1       -0.2729
     12 C         142.2852  141.3181  165.4810 C.2     1  UNL1        0.2451
     13 N         141.8047  142.3565  164.5109 N.am    1  UNL1       -0.2988
     14 H         140.9636  142.8385  164.6824 H       1  UNL1        0.1498
     15 C         142.6058  142.6604  163.2797 C.3     1  UNL1        0.1164
     16 C         141.9173  143.1410  162.0368 C.ar    1  UNL1       -0.0024
     17 C         141.8021  144.6115  161.7640 C.ar    1  UNL1        0.0005
     18 C         141.1136  145.0920  160.5211 C.ar    1  UNL1        0.0369
     19 C         140.5402  144.1022  159.5508 C.ar    1  UNL1        0.1468
     20 C         140.6553  142.6317  159.8235 C.ar    1  UNL1        0.0369
     21 C         141.3439  142.1511  161.0666 C.ar    1  UNL1        0.0005
     22 O         139.8517  144.5828  158.3079 O.3     1  UNL1       -0.4045
     23 C         140.5673  145.5000  157.3610 C.3     1  UNL1        0.5753
     24 F         141.2828  146.4173  156.4141 F       1  UNL1       -0.1328
     25 F         139.7374  146.6506  157.8484 F       1  UNL1       -0.1328
     26 F         141.3971  144.3495  156.8736 F       1  UNL1       -0.1328
     27 C         139.5426  139.5534  165.5979 C.3     1  UNL1        0.1024
     28 C         138.2536  140.1140  165.0745 C.3     1  UNL1        0.0872
     29 C         138.2487  141.4187  164.3345 C.ar    1  UNL1        0.1409
     30 N         138.6798  142.6765  165.0291 N.ar    1  UNL1       -0.2291
     31 C         138.6749  143.9812  164.2891 C.ar    1  UNL1        0.1018
     32 C         138.2390  144.0283  162.8546 C.ar    1  UNL1        0.0413
     33 C         137.8079  142.7706  162.1601 C.ar    1  UNL1        0.1018
     34 N         137.8128  141.4658  162.9001 N.ar    1  UNL1       -0.2291
@<TRIPOS>BOND
     1    11    12    2
     2    12    13   am
     3    13    15    1
     4    15    16    1
     5    16    17   ar
     6    17    18   ar
     7    18    19   ar
     8    19    22    1
     9    22    23    1
    10    23    24    1
    11    23    25    1
    12    23    26    1
    13    19    20   ar
    14    20    21   ar
    15    12     1    1
    16     1     2    1
    17     2     3   ar
    18     3     4   ar
    19     4     5   ar
    20     5     6   ar
    21     6     7   ar
    22     7     8    1
    23     8     9    2
    24     8    10   am
    25    10    27    1
    26    27    28    1
    27    28    29    1
    28    29    30   ar
    29    30    31   ar
    30    31    32   ar
    31    32    33   ar
    32    33    34   ar
    33    21    16   ar
    34    10     1    1
    35    34    29   ar
    36     7     2   ar
    37    13    14    1
@<TRIPOS>MOLECULE
*****
 34 37 0 0 0
SMALL
GASTEIGER

@<TRIPOS>ATOM
      1 C         141.4778  144.2978  158.8501 C.3     1  UNL1        0.1751
      2 C         141.2873  144.9473  157.5115 C.ar    1  UNL1        0.0089
      3 C         140.3118  145.9780  157.0258 C.ar    1  UNL1       -0.0021
      4 C         140.3628  146.4465  155.6018 C.ar    1  UNL1       -0.0003
      5 C         141.3892  145.8843  154.6635 C.ar    1  UNL1        0.0001
      6 C         142.3647  144.8536  155.1492 C.ar    1  UNL1        0.0043
      7 C         142.3138  144.3851  156.5733 C.ar    1  UNL1        0.0516
      8 C         143.1386  143.3881  157.3320 C.2     1  UNL1        0.2493
      9 O         144.2798  142.5860  156.7804 O.2     1  UNL1       -0.2699
     10 N         142.6220  143.3342  158.7392 N.am    1  UNL1       -0.2657
     11 O         139.2361  144.1189  160.1512 O.2     1  UNL1       -0.2729
     12 C         140.6666  144.5650  160.0832 C.2     1  UNL1        0.2451
     13 N         141.2859  145.2784  161.2484 N.am    1  UNL1       -0.2988
     14 H         142.2248  145.5712  161.2039 H       1  UNL1        0.1498
     15 C         140.4746  145.5457  162.4815 C.3     1  UNL1        0.1164
     16 C         140.2568  144.4542  163.4870 C.ar    1  UNL1       -0.0024
     17 C         139.5212  144.7444  164.7616 C.ar    1  UNL1        0.0005
     18 C         139.3035  143.6528  165.7671 C.ar    1  UNL1        0.0369
     19 C         139.8214  142.2709  165.4981 C.ar    1  UNL1        0.1468
     20 C         140.5570  141.9807  164.2235 C.ar    1  UNL1        0.0369
     21 C         140.7747  143.0724  163.2179 C.ar    1  UNL1        0.0005
     22 O         139.6036  141.1794  166.5036 O.3     1  UNL1       -0.4045
     23 C         139.4162  139.7636  166.0450 C.3     1  UNL1        0.5753
     24 F         139.2288  138.3478  165.5864 F       1  UNL1       -0.1328
     25 F         140.8392  139.4578  166.4076 F       1  UNL1       -0.1328
     26 F         137.9932  140.0694  165.6824 F       1  UNL1       -0.1328
     27 C         143.1558  142.4686  159.8418 C.3     1  UNL1        0.1024
     28 C         144.3852  142.8848  160.5937 C.3     1  UNL1        0.0872
     29 C         144.2981  143.2007  162.0575 C.ar    1  UNL1        0.1409
     30 N         144.0060  144.6019  162.5062 N.ar    1  UNL1       -0.2291
     31 C         143.9189  144.9179  163.9700 C.ar    1  UNL1        0.1018
     32 C         144.1239  143.8326  164.9850 C.ar    1  UNL1        0.0413
     33 C         144.4160  142.4314  164.5362 C.ar    1  UNL1        0.1018
     34 N         144.5031  142.1155  163.0724 N.ar    1  UNL1       -0.2291
@<TRIPOS>BOND
     1    11    12    2
     2    12    13   am
     3    13    15    1
     4    15    16    1
     5    16    17   ar
     6    17    18   ar
     7    18    19   ar
     8    19    22    1
     9    22    23    1
    10    23    24    1
    11    23    25    1
    12    23    26    1
    13    19    20   ar
    14    20    21   ar
    15    12     1    1
    16     1     2    1
    17     2     3   ar
    18     3     4   ar
    19     4     5   ar
    20     5     6   ar
    21     6     7   ar
    22     7     8    1
    23     8     9    2
    24     8    10   am
    25    10    27    1
    26    27    28    1
    27    28    29    1
    28    29    30   ar
    29    30    31   ar
    30    31    32   ar
    31    32    33   ar
    32    33    34   ar
    33    21    16   ar
    34    10     1    1
    35    34    29   ar
    36     7     2   ar
    37    13    14    1
@<TRIPOS>MOLECULE
*****
 34 37 0 0 0
SMALL
GASTEIGER

@<TRIPOS>ATOM
      1 C         138.9799  142.8011  160.6176 C.3     1  UNL1        0.1751
      2 C         139.4902  143.4751  159.3785 C.ar    1  UNL1        0.0089
      3 C         140.2267  144.7648  159.1684 C.ar    1  UNL1       -0.0021
      4 C         140.6153  145.1894  157.7832 C.ar    1  UNL1       -0.0003
      5 C         140.2673  144.3244  156.6082 C.ar    1  UNL1        0.0001
      6 C         139.5307  143.0347  156.8184 C.ar    1  UNL1        0.0043
      7 C         139.1422  142.6101  158.2035 C.ar    1  UNL1        0.0516
      8 C         138.4168  141.4015  158.7165 C.2     1  UNL1        0.2493
      9 O         137.8851  140.2729  157.8836 O.2     1  UNL1       -0.2699
     10 N         138.3165  141.5195  160.2084 N.am    1  UNL1       -0.2657
     11 O         138.3057  144.5053  162.4591 O.2     1  UNL1       -0.2729
     12 C         139.1101  143.3180  162.0197 C.2     1  UNL1        0.2451
     13 N         140.0449  142.6475  162.9824 N.am    1  UNL1       -0.2988
     14 H         140.5729  141.8682  162.6940 H       1  UNL1        0.1498
     15 C         140.1751  143.1644  164.3845 C.3     1  UNL1        0.1164
     16 C         140.8637  142.3359  165.4283 C.ar    1  UNL1       -0.0024
     17 C         141.8555  141.2874  165.0196 C.ar    1  UNL1        0.0005
     18 C         142.5440  140.4590  166.0634 C.ar    1  UNL1        0.0369
     19 C         142.2409  140.6790  167.5159 C.ar    1  UNL1        0.1468
     20 C         141.2491  141.7275  167.9246 C.ar    1  UNL1        0.0369
     21 C         140.5605  142.5560  166.8807 C.ar    1  UNL1        0.0005
     22 O         142.9295  139.8505  168.5596 O.3     1  UNL1       -0.4045
     23 C         142.6767  140.1150  170.0143 C.3     1  UNL1        0.5753
     24 F         142.4238  140.3794  171.4690 F       1  UNL1       -0.1328
     25 F         143.7507  141.1620  170.0107 F       1  UNL1       -0.1328
     26 F         141.6026  139.0679  170.0180 F       1  UNL1       -0.1328
     27 C         137.6669  140.5298  161.1295 C.3     1  UNL1        0.1024
     28 C         138.4645  139.3882  161.6868 C.3     1  UNL1        0.0872
     29 C         138.5022  139.1520  163.1676 C.ar    1  UNL1        0.1409
     30 N         138.8974  137.8075  163.7027 N.ar    1  UNL1       -0.2291
     31 C         138.9351  137.5712  165.1835 C.ar    1  UNL1        0.1018
     32 C         138.5777  138.6795  166.1292 C.ar    1  UNL1        0.0413
     33 C         138.1826  140.0238  165.5940 C.ar    1  UNL1        0.1018
     34 N         138.1448  140.2601  164.1132 N.ar    1  UNL1       -0.2291
@<TRIPOS>BOND
     1    11    12    2
     2    12    13   am
     3    13    15    1
     4    15    16    1
     5    16    17   ar
     6    17    18   ar
     7    18    19   ar
     8    19    22    1
     9    22    23    1
    10    23    24    1
    11    23    25    1
    12    23    26    1
    13    19    20   ar
    14    20    21   ar
    15    12     1    1
    16     1     2    1
    17     2     3   ar
    18     3     4   ar
    19     4     5   ar
    20     5     6   ar
    21     6     7   ar
    22     7     8    1
    23     8     9    2
    24     8    10   am
    25    10    27    1
    26    27    28    1
    27    28    29    1
    28    29    30   ar
    29    30    31   ar
    30    31    32   ar
    31    32    33   ar
    32    33    34   ar
    33    21    16   ar
    34    10     1    1
    35    34    29   ar
    36     7     2   ar
    37    13    14    1
@<TRIPOS>MOLECULE
*****
 34 37 0 0 0
SMALL
GASTEIGER

@<TRIPOS>ATOM
      1 C         139.4673  143.3444  161.3939 C.3     1  UNL1        0.1751
      2 C         139.2078  142.8298  160.0090 C.ar    1  UNL1        0.0089
      3 C         138.3087  141.7457  159.4931 C.ar    1  UNL1       -0.0021
      4 C         138.2579  141.4494  158.0236 C.ar    1  UNL1       -0.0003
      5 C         139.1063  142.2373  157.0699 C.ar    1  UNL1        0.0001
      6 C         140.0054  143.3214  157.5857 C.ar    1  UNL1        0.0043
      7 C         140.0562  143.6177  159.0553 C.ar    1  UNL1        0.0516
      8 C         140.8399  144.6192  159.8508 C.2     1  UNL1        0.2493
      9 O         141.8163  145.6148  159.2979 O.2     1  UNL1       -0.2699
     10 N         140.4760  144.4502  161.2961 N.am    1  UNL1       -0.2657
     11 O         137.7102  143.6123  163.2888 O.2     1  UNL1       -0.2729
     12 C         138.8300  142.8413  162.6551 C.2     1  UNL1        0.2451
     13 N         139.3124  141.5671  163.2827 N.am    1  UNL1       -0.2988
     14 H         140.0474  141.0611  162.8668 H       1  UNL1        0.1498
     15 C         138.6751  141.0641  164.5440 C.3     1  UNL1        0.1164
     16 C         139.3735  141.2414  165.8595 C.ar    1  UNL1       -0.0024
     17 C         139.3595  140.1341  166.8714 C.ar    1  UNL1        0.0005
     18 C         140.0580  140.3115  168.1869 C.ar    1  UNL1        0.0369
     19 C         140.7705  141.5961  168.4907 C.ar    1  UNL1        0.1468
     20 C         140.7845  142.7033  167.4788 C.ar    1  UNL1        0.0369
     21 C         140.0860  142.5260  166.1632 C.ar    1  UNL1        0.0005
     22 O         141.4690  141.7734  169.8062 O.3     1  UNL1       -0.4045
     23 C         142.9388  142.0704  169.8410 C.3     1  UNL1        0.5753
     24 F         144.4087  142.3674  169.8758 F       1  UNL1       -0.1328
     25 F         143.2351  140.6475  169.4701 F       1  UNL1       -0.1328
     26 F         142.6425  143.4933  170.2119 F       1  UNL1       -0.1328
     27 C         141.0245  145.2472  162.4424 C.3     1  UNL1        0.1024
     28 C         141.8879  144.5823  163.4731 C.3     1  UNL1        0.0872
     29 C         142.7691  143.4323  163.0844 C.ar    1  UNL1        0.1409
     30 N         144.0331  143.6823  162.3163 N.ar    1  UNL1       -0.2291
     31 C         144.9144  142.5324  161.9276 C.ar    1  UNL1        0.1018
     32 C         144.5317  141.1325  162.3072 C.ar    1  UNL1        0.0413
     33 C         143.2678  140.8826  163.0753 C.ar    1  UNL1        0.1018
     34 N         142.3865  142.0325  163.4639 N.ar    1  UNL1       -0.2291
@<TRIPOS>BOND
     1    11    12    2
     2    12    13   am
     3    13    15    1
     4    15    16    1
     5    16    17   ar
     6    17    18   ar
     7    18    19   ar
     8    19    22    1
     9    22    23    1
    10    23    24    1
    11    23    25    1
    12    23    26    1
    13    19    20   ar
    14    20    21   ar
    15    12     1    1
    16     1     2    1
    17     2     3   ar
    18     3     4   ar
    19     4     5   ar
    20     5     6   ar
    21     6     7   ar
    22     7     8    1
    23     8     9    2
    24     8    10   am
    25    10    27    1
    26    27    28    1
    27    28    29    1
    28    29    30   ar
    29    30    31   ar
    30    31    32   ar
    31    32    33   ar
    32    33    34   ar
    33    21    16   ar
    34    10     1    1
    35    34    29   ar
    36     7     2   ar
    37    13    14    1
