@<TRIPOS>MOLECULE
*****
 32 35 0 0 0
SMALL
GASTEIGER

@<TRIPOS>ATOM
      1 N         144.2918  139.9023  163.9244 N.3     1  UNL1       -0.2700
      2 C         143.9485  139.4092  165.2988 C.3     1  UNL1        0.0897
      3 C         142.7761  138.4946  165.4964 C.3     1  UNL1        0.0897
      4 N         141.9470  138.0731  164.3195 N.3     1  UNL1       -0.2677
      5 C         142.2903  138.5662  162.9451 C.3     1  UNL1        0.0897
      6 C         143.4627  139.4808  162.7476 C.3     1  UNL1        0.0897
      7 C         145.4641  140.8169  163.7268 C.3     1  UNL1        0.0769
      8 C         145.3401  142.2762  164.0511 C.3     1  UNL1        0.0438
      9 C         142.7699  144.1107  161.6473 C.ar    1  UNL1        0.1479
     10 C         143.9652  143.3367  162.1185 C.ar    1  UNL1        0.0334
     11 C         144.1448  143.0502  163.5799 C.ar    1  UNL1       -0.0177
     12 C         143.1290  143.5377  164.5701 C.ar    1  UNL1       -0.0033
     13 C         141.9337  144.3117  164.0989 C.ar    1  UNL1        0.0130
     14 C         141.7541  144.5982  162.6375 C.ar    1  UNL1        0.1023
     15 C         142.7193  143.2893  159.1830 C.3     1  UNL1        0.2525
     16 O         142.5903  144.3973  160.1859 O.3     1  UNL1       -0.4708
     17 C         140.5587  145.3723  162.1663 C.1     1  UNL1        0.1035
     18 N         139.3634  146.1464  161.6952 N.1     1  UNL1       -0.1907
     19 C         140.7746  137.1586  164.5171 C.3     1  UNL1        0.1125
     20 C         139.4621  137.7125  164.9867 C.3     1  UNL1        0.1988
     21 F         138.4227  136.7950  165.5593 F       1  UNL1       -0.2309
     22 C         139.1891  139.1839  164.8838 C.ar    1  UNL1        0.0071
     23 C         139.5825  140.0999  166.0044 C.ar    1  UNL1       -0.0017
     24 C         139.3095  141.5712  165.9015 C.ar    1  UNL1        0.0060
     25 C         138.6430  142.1265  164.6778 C.ar    1  UNL1        0.0748
     26 C         138.2495  141.2105  163.5571 C.ar    1  UNL1        0.0234
     27 C         138.5225  139.7391  163.6600 C.ar    1  UNL1       -0.0235
     28 C         138.1291  138.8230  162.5393 C.3     1  UNL1        0.0306
     29 C         137.6120  142.0401  162.4823 C.3     1  UNL1        0.2352
     30 O         137.6115  143.4690  162.9388 O.3     1  UNL1       -0.4404
     31 C         138.2486  143.5224  164.2957 C.2     1  UNL1        0.3413
     32 O         138.4552  144.7552  165.1248 O.2     1  UNL1       -0.2449
@<TRIPOS>BOND
     1    15    16    1
     2    16     9    1
     3     9    10   ar
     4    10    11   ar
     5    11     8    1
     6     8     7    1
     7     7     1    1
     8     1     2    1
     9     2     3    1
    10     3     4    1
    11     4    19    1
    12    19    20    1
    13    20    21    1
    14    20    22    1
    15    22    23   ar
    16    23    24   ar
    17    24    25   ar
    18    25    26   ar
    19    26    27   ar
    20    27    28    1
    21    26    29    1
    22    29    30    1
    23    30    31    1
    24    31    32    2
    25     4     5    1
    26     5     6    1
    27    11    12   ar
    28    12    13   ar
    29    13    14   ar
    30    14    17    1
    31    17    18    3
    32    14     9   ar
    33     6     1    1
    34    27    22   ar
    35    31    25    1
@<TRIPOS>MOLECULE
*****
 32 35 0 0 0
SMALL
GASTEIGER

@<TRIPOS>ATOM
      1 N         143.6411  139.1439  161.8713 N.3     1  UNL1       -0.2700
      2 C         144.0237  138.9671  163.3109 C.3     1  UNL1        0.0897
      3 C         144.6598  140.0988  164.0622 C.3     1  UNL1        0.0897
      4 N         144.9134  141.4073  163.3739 N.3     1  UNL1       -0.2677
      5 C         144.5308  141.5841  161.9343 C.3     1  UNL1        0.0897
      6 C         143.8946  140.4523  161.1831 C.3     1  UNL1        0.0897
      7 C         143.0049  138.0122  161.1199 C.3     1  UNL1        0.0769
      8 C         141.5104  137.9051  161.0490 C.3     1  UNL1        0.0438
      9 C         138.8026  139.1621  163.6638 C.ar    1  UNL1        0.1479
     10 C         139.6223  139.0570  162.4120 C.ar    1  UNL1        0.0334
     11 C         140.6908  138.0102  162.3009 C.ar    1  UNL1       -0.0177
     12 C         140.9396  137.0684  163.4415 C.ar    1  UNL1       -0.0033
     13 C         140.1199  137.1735  164.6933 C.ar    1  UNL1        0.0130
     14 C         139.0514  138.2204  164.8045 C.ar    1  UNL1        0.1023
     15 C         137.3863  141.0550  162.5862 C.3     1  UNL1        0.2525
     16 O         137.7340  140.2090  163.7750 O.3     1  UNL1       -0.4708
     17 C         138.2317  138.3254  166.0564 C.1     1  UNL1        0.1035
     18 N         137.4120  138.4305  167.3082 N.1     1  UNL1       -0.1907
     19 C         145.5495  142.5390  164.1253 C.3     1  UNL1        0.1125
     20 C         144.7011  143.4666  164.9436 C.3     1  UNL1        0.1988
     21 F         145.2602  144.0950  166.1856 F       1  UNL1       -0.2309
     22 C         143.2936  143.7659  164.5200 C.ar    1  UNL1        0.0071
     23 C         143.0376  144.7002  163.3749 C.ar    1  UNL1       -0.0017
     24 C         141.6301  144.9995  162.9512 C.ar    1  UNL1        0.0060
     25 C         140.4786  144.3643  163.6728 C.ar    1  UNL1        0.0748
     26 C         140.7346  143.4299  164.8179 C.ar    1  UNL1        0.0234
     27 C         142.1420  143.1307  165.2416 C.ar    1  UNL1       -0.0235
     28 C         142.3981  142.1963  166.3868 C.3     1  UNL1        0.0306
     29 C         139.4086  142.9567  165.3354 C.3     1  UNL1        0.2352
     30 O         138.3331  143.5987  164.5100 O.3     1  UNL1       -0.4404
     31 C         138.9944  144.4686  163.4825 C.2     1  UNL1        0.3413
     32 O         138.2944  145.2973  162.4465 O.2     1  UNL1       -0.2449
@<TRIPOS>BOND
     1    15    16    1
     2    16     9    1
     3     9    10   ar
     4    10    11   ar
     5    11     8    1
     6     8     7    1
     7     7     1    1
     8     1     2    1
     9     2     3    1
    10     3     4    1
    11     4    19    1
    12    19    20    1
    13    20    21    1
    14    20    22    1
    15    22    23   ar
    16    23    24   ar
    17    24    25   ar
    18    25    26   ar
    19    26    27   ar
    20    27    28    1
    21    26    29    1
    22    29    30    1
    23    30    31    1
    24    31    32    2
    25     4     5    1
    26     5     6    1
    27    11    12   ar
    28    12    13   ar
    29    13    14   ar
    30    14    17    1
    31    17    18    3
    32    14     9   ar
    33     6     1    1
    34    27    22   ar
    35    31    25    1
@<TRIPOS>MOLECULE
*****
 32 35 0 0 0
SMALL
GASTEIGER

@<TRIPOS>ATOM
      1 N         139.5029  138.8972  161.9458 N.3     1  UNL1       -0.2700
      2 C         140.8070  139.6381  161.9680 C.3     1  UNL1        0.0897
      3 C         141.7689  139.4295  163.0999 C.3     1  UNL1        0.0897
      4 N         141.4266  138.4799  164.2096 N.3     1  UNL1       -0.2677
      5 C         140.1226  137.7390  164.1874 C.3     1  UNL1        0.0897
      6 C         139.1607  137.9477  163.0554 C.3     1  UNL1        0.0897
      7 C         138.5410  139.1057  160.8139 C.3     1  UNL1        0.0769
      8 C         137.6644  140.3227  160.7891 C.3     1  UNL1        0.0438
      9 C         138.2247  143.8033  162.6113 C.ar    1  UNL1        0.1479
     10 C         138.1094  142.7737  161.5266 C.ar    1  UNL1        0.0334
     11 C         137.7796  141.3522  161.8738 C.ar    1  UNL1       -0.0177
     12 C         137.5649  140.9604  163.3057 C.ar    1  UNL1       -0.0033
     13 C         137.6801  141.9900  164.3904 C.ar    1  UNL1        0.0130
     14 C         138.0100  143.4115  164.0432 C.ar    1  UNL1        0.1023
     15 C         139.9864  145.6505  162.1273 C.3     1  UNL1        0.2525
     16 O         138.5546  145.2249  162.2642 O.3     1  UNL1       -0.4708
     17 C         138.1252  144.4410  165.1281 C.1     1  UNL1        0.1035
     18 N         138.2404  145.4707  166.2128 N.1     1  UNL1       -0.1907
     19 C         142.3885  138.2713  165.3415 C.3     1  UNL1        0.1125
     20 C         143.0683  139.4490  165.9747 C.3     1  UNL1        0.1988
     21 F         144.3467  139.9779  165.3952 F       1  UNL1       -0.2309
     22 C         142.4696  140.0978  167.1875 C.ar    1  UNL1        0.0071
     23 C         142.6700  139.4851  168.5418 C.ar    1  UNL1       -0.0017
     24 C         142.0714  140.1339  169.7546 C.ar    1  UNL1        0.0060
     25 C         141.2724  141.3954  169.6129 C.ar    1  UNL1        0.0748
     26 C         141.0720  142.0082  168.2585 C.ar    1  UNL1        0.0234
     27 C         141.6706  141.3594  167.0458 C.ar    1  UNL1       -0.0235
     28 C         141.4702  141.9721  165.6914 C.3     1  UNL1        0.0306
     29 C         140.2426  143.2465  168.4281 C.3     1  UNL1        0.2352
     30 O         139.9304  143.3990  169.8873 O.3     1  UNL1       -0.4404
     31 C         140.5669  142.2550  170.6196 C.2     1  UNL1        0.3413
     32 O         140.5081  142.0131  172.0988 O.2     1  UNL1       -0.2449
@<TRIPOS>BOND
     1    15    16    1
     2    16     9    1
     3     9    10   ar
     4    10    11   ar
     5    11     8    1
     6     8     7    1
     7     7     1    1
     8     1     2    1
     9     2     3    1
    10     3     4    1
    11     4    19    1
    12    19    20    1
    13    20    21    1
    14    20    22    1
    15    22    23   ar
    16    23    24   ar
    17    24    25   ar
    18    25    26   ar
    19    26    27   ar
    20    27    28    1
    21    26    29    1
    22    29    30    1
    23    30    31    1
    24    31    32    2
    25     4     5    1
    26     5     6    1
    27    11    12   ar
    28    12    13   ar
    29    13    14   ar
    30    14    17    1
    31    17    18    3
    32    14     9   ar
    33     6     1    1
    34    27    22   ar
    35    31    25    1
@<TRIPOS>MOLECULE
*****
 32 35 0 0 0
SMALL
GASTEIGER

@<TRIPOS>ATOM
      1 N         144.2850  139.9945  163.9011 N.3     1  UNL1       -0.2700
      2 C         143.7848  139.1062  162.8007 C.3     1  UNL1        0.0897
      3 C         142.6707  138.1377  163.0666 C.3     1  UNL1        0.0897
      4 N         142.0567  138.0576  164.4329 N.3     1  UNL1       -0.2677
      5 C         142.5568  138.9459  165.5332 C.3     1  UNL1        0.0897
      6 C         143.6710  139.9143  165.2673 C.3     1  UNL1        0.0897
      7 C         145.3991  140.9630  163.6352 C.3     1  UNL1        0.0769
      8 C         145.2387  142.4093  163.9993 C.3     1  UNL1        0.0438
      9 C         142.2787  143.6242  161.6515 C.ar    1  UNL1        0.1479
     10 C         143.4590  142.8497  162.1586 C.ar    1  UNL1        0.0334
     11 C         144.0584  143.1838  163.4924 C.ar    1  UNL1       -0.0177
     12 C         143.4776  144.2924  164.3192 C.ar    1  UNL1       -0.0033
     13 C         142.2973  145.0669  163.8121 C.ar    1  UNL1        0.0130
     14 C         141.6979  144.7328  162.4783 C.ar    1  UNL1        0.1023
     15 C         142.3729  143.7130  159.0567 C.3     1  UNL1        0.2525
     16 O         141.6793  143.2902  160.3177 O.3     1  UNL1       -0.4708
     17 C         140.5176  145.5074  161.9713 C.1     1  UNL1        0.1035
     18 N         139.3372  146.2819  161.4645 N.1     1  UNL1       -0.1907
     19 C         140.9425  137.0891  164.6987 C.3     1  UNL1        0.1125
     20 C         139.5258  137.5767  164.7690 C.3     1  UNL1        0.1988
     21 F         138.5117  136.8212  165.5759 F       1  UNL1       -0.2309
     22 C         139.1230  138.8199  164.0324 C.ar    1  UNL1        0.0071
     23 C         139.0158  138.8037  162.5365 C.ar    1  UNL1       -0.0017
     24 C         138.6130  140.0468  161.7999 C.ar    1  UNL1        0.0060
     25 C         138.3174  141.3060  162.5594 C.ar    1  UNL1        0.0748
     26 C         138.4246  141.3222  164.0555 C.ar    1  UNL1        0.0234
     27 C         138.8274  140.0791  164.7921 C.ar    1  UNL1       -0.0235
     28 C         138.9346  140.0952  166.2882 C.3     1  UNL1        0.0306
     29 C         138.0743  142.7012  164.5305 C.3     1  UNL1        0.2352
     30 O         137.7506  143.5373  163.3279 O.3     1  UNL1       -0.4404
     31 C         137.9008  142.6751  162.1097 C.2     1  UNL1        0.3413
     32 O         137.6743  143.1062  160.6910 O.2     1  UNL1       -0.2449
@<TRIPOS>BOND
     1    15    16    1
     2    16     9    1
     3     9    10   ar
     4    10    11   ar
     5    11     8    1
     6     8     7    1
     7     7     1    1
     8     1     2    1
     9     2     3    1
    10     3     4    1
    11     4    19    1
    12    19    20    1
    13    20    21    1
    14    20    22    1
    15    22    23   ar
    16    23    24   ar
    17    24    25   ar
    18    25    26   ar
    19    26    27   ar
    20    27    28    1
    21    26    29    1
    22    29    30    1
    23    30    31    1
    24    31    32    2
    25     4     5    1
    26     5     6    1
    27    11    12   ar
    28    12    13   ar
    29    13    14   ar
    30    14    17    1
    31    17    18    3
    32    14     9   ar
    33     6     1    1
    34    27    22   ar
    35    31    25    1
@<TRIPOS>MOLECULE
*****
 32 35 0 0 0
SMALL
GASTEIGER

@<TRIPOS>ATOM
      1 N         137.8831  140.2178  161.8744 N.3     1  UNL1       -0.2700
      2 C         138.1201  141.4589  161.0659 C.3     1  UNL1        0.0897
      3 C         138.0799  142.8043  161.7278 C.3     1  UNL1        0.0897
      4 N         137.8026  142.9087  163.1983 N.3     1  UNL1       -0.2677
      5 C         137.5656  141.6676  164.0068 C.3     1  UNL1        0.0897
      6 C         137.6058  140.3223  163.3448 C.3     1  UNL1        0.0897
      7 C         137.9233  138.8724  161.2125 C.3     1  UNL1        0.0769
      8 C         139.2221  138.1307  161.0992 C.3     1  UNL1        0.0438
      9 C         142.5244  138.6739  163.2321 C.ar    1  UNL1        0.1479
     10 C         141.5633  138.6835  162.0806 C.ar    1  UNL1        0.0334
     11 C         140.1832  138.1210  162.2508 C.ar    1  UNL1       -0.0177
     12 C         139.7642  137.5489  163.5726 C.ar    1  UNL1       -0.0033
     13 C         140.7254  137.5393  164.7242 C.ar    1  UNL1        0.0130
     14 C         142.1054  138.1018  164.5539 C.ar    1  UNL1        0.1023
     15 C         144.2852  139.9143  161.7792 C.3     1  UNL1        0.2525
     16 O         143.9045  139.2364  163.0620 O.3     1  UNL1       -0.4708
     17 C         143.0665  138.0922  165.7056 C.1     1  UNL1        0.1035
     18 N         144.0277  138.0825  166.8572 N.1     1  UNL1       -0.1907
     19 C         137.7624  144.2541  163.8603 C.3     1  UNL1        0.1125
     20 C         138.8253  144.6364  164.8472 C.3     1  UNL1        0.1988
     21 F         138.4843  145.5153  166.0139 F       1  UNL1       -0.2309
     22 C         140.2294  144.1398  164.6674 C.ar    1  UNL1        0.0071
     23 C         140.7899  143.1175  165.6111 C.ar    1  UNL1       -0.0017
     24 C         142.1938  142.6209  165.4313 C.ar    1  UNL1        0.0060
     25 C         143.0372  143.1467  164.3079 C.ar    1  UNL1        0.0748
     26 C         142.4767  144.1690  163.3642 C.ar    1  UNL1        0.0234
     27 C         141.0728  144.6656  163.5439 C.ar    1  UNL1       -0.0235
     28 C         140.5122  145.6880  162.6002 C.3     1  UNL1        0.0306
     29 C         143.5375  144.5010  162.3569 C.3     1  UNL1        0.2352
     30 O         144.7536  143.6838  162.6782 O.3     1  UNL1       -0.4404
     31 C         144.4445  142.8468  163.8839 C.2     1  UNL1        0.3413
     32 O         145.3785  141.8796  164.5489 O.2     1  UNL1       -0.2449
@<TRIPOS>BOND
     1    15    16    1
     2    16     9    1
     3     9    10   ar
     4    10    11   ar
     5    11     8    1
     6     8     7    1
     7     7     1    1
     8     1     2    1
     9     2     3    1
    10     3     4    1
    11     4    19    1
    12    19    20    1
    13    20    21    1
    14    20    22    1
    15    22    23   ar
    16    23    24   ar
    17    24    25   ar
    18    25    26   ar
    19    26    27   ar
    20    27    28    1
    21    26    29    1
    22    29    30    1
    23    30    31    1
    24    31    32    2
    25     4     5    1
    26     5     6    1
    27    11    12   ar
    28    12    13   ar
    29    13    14   ar
    30    14    17    1
    31    17    18    3
    32    14     9   ar
    33     6     1    1
    34    27    22   ar
    35    31    25    1
@<TRIPOS>MOLECULE
*****
 32 35 0 0 0
SMALL
GASTEIGER

@<TRIPOS>ATOM
      1 N         139.0817  142.5793  161.4308 N.3     1  UNL1       -0.2700
      2 C         138.0860  143.0113  162.4662 C.3     1  UNL1        0.0897
      3 C         137.7800  142.1177  163.6314 C.3     1  UNL1        0.0897
      4 N         138.4698  140.7920  163.7612 N.3     1  UNL1       -0.2677
      5 C         139.4655  140.3599  162.7259 C.3     1  UNL1        0.0897
      6 C         139.7714  141.2536  161.5607 C.3     1  UNL1        0.0897
      7 C         139.3877  143.4729  160.2656 C.3     1  UNL1        0.0769
      8 C         140.5001  144.4748  160.3604 C.3     1  UNL1        0.0438
      9 C         143.6876  143.5831  162.5500 C.ar    1  UNL1        0.1479
     10 C         142.7287  143.6339  161.3976 C.ar    1  UNL1        0.0334
     11 C         141.4589  144.4240  161.5128 C.ar    1  UNL1       -0.0177
     12 C         141.1480  145.1633  162.7804 C.ar    1  UNL1       -0.0033
     13 C         142.1068  145.1125  163.9327 C.ar    1  UNL1        0.0130
     14 C         143.3767  144.3224  163.8175 C.ar    1  UNL1        0.1023
     15 C         144.9328  141.3037  162.6122 C.3     1  UNL1        0.2525
     16 O         144.9575  142.7929  162.4349 O.3     1  UNL1       -0.4708
     17 C         144.3355  144.2716  164.9700 C.1     1  UNL1        0.1035
     18 N         145.2943  144.2208  166.1224 N.1     1  UNL1       -0.1907
     19 C         138.1638  139.8984  164.9265 C.3     1  UNL1        0.1125
     20 C         139.2807  139.3467  165.7621 C.3     1  UNL1        0.1988
     21 F         140.0218  138.1234  165.3102 F       1  UNL1       -0.2309
     22 C         139.6564  140.0184  167.0497 C.ar    1  UNL1        0.0071
     23 C         138.8529  139.7643  168.2905 C.ar    1  UNL1       -0.0017
     24 C         139.2286  140.4359  169.5780 C.ar    1  UNL1        0.0060
     25 C         140.4079  141.3616  169.6247 C.ar    1  UNL1        0.0748
     26 C         141.2115  141.6158  168.3839 C.ar    1  UNL1        0.0234
     27 C         140.8358  140.9442  167.0963 C.ar    1  UNL1       -0.0235
     28 C         141.6393  141.1982  165.8554 C.3     1  UNL1        0.0306
     29 C         142.3137  142.5714  168.7330 C.3     1  UNL1        0.2352
     30 O         142.1912  142.9079  170.1896 O.3     1  UNL1       -0.4404
     31 C         141.0134  142.1602  170.7407 C.2     1  UNL1        0.3413
     32 O         140.5266  142.2036  172.1589 O.2     1  UNL1       -0.2449
@<TRIPOS>BOND
     1    15    16    1
     2    16     9    1
     3     9    10   ar
     4    10    11   ar
     5    11     8    1
     6     8     7    1
     7     7     1    1
     8     1     2    1
     9     2     3    1
    10     3     4    1
    11     4    19    1
    12    19    20    1
    13    20    21    1
    14    20    22    1
    15    22    23   ar
    16    23    24   ar
    17    24    25   ar
    18    25    26   ar
    19    26    27   ar
    20    27    28    1
    21    26    29    1
    22    29    30    1
    23    30    31    1
    24    31    32    2
    25     4     5    1
    26     5     6    1
    27    11    12   ar
    28    12    13   ar
    29    13    14   ar
    30    14    17    1
    31    17    18    3
    32    14     9   ar
    33     6     1    1
    34    27    22   ar
    35    31    25    1
@<TRIPOS>MOLECULE
*****
 32 35 0 0 0
SMALL
GASTEIGER

@<TRIPOS>ATOM
      1 N         140.7637  140.4619  166.8901 N.3     1  UNL1       -0.2700
      2 C         140.9148  141.9377  166.6681 C.3     1  UNL1        0.0897
      3 C         142.1217  142.4690  165.9532 C.3     1  UNL1        0.0897
      4 N         143.1776  141.5244  165.4602 N.3     1  UNL1       -0.2677
      5 C         143.0265  140.0486  165.6822 C.3     1  UNL1        0.0897
      6 C         141.8196  139.5174  166.3971 C.3     1  UNL1        0.0897
      7 C         139.5568  139.9306  167.6050 C.3     1  UNL1        0.0769
      8 C         138.5461  139.1085  166.8615 C.3     1  UNL1        0.0438
      9 C         137.7630  140.6329  163.2821 C.ar    1  UNL1        0.1479
     10 C         137.8861  140.5032  164.7714 C.ar    1  UNL1        0.0334
     11 C         138.4231  139.2381  165.3722 C.ar    1  UNL1       -0.0177
     12 C         138.8370  138.1026  164.4838 C.ar    1  UNL1       -0.0033
     13 C         138.7140  138.2322  162.9945 C.ar    1  UNL1        0.0130
     14 C         138.1770  139.4974  162.3937 C.ar    1  UNL1        0.1023
     15 C         137.7313  143.2277  163.1569 C.3     1  UNL1        0.2525
     16 O         137.2260  141.8980  162.6811 O.3     1  UNL1       -0.4708
     17 C         138.0539  139.6269  160.9043 C.1     1  UNL1        0.1035
     18 N         137.9310  139.7566  159.4150 N.1     1  UNL1       -0.1907
     19 C         144.3845  142.0556  164.7453 C.3     1  UNL1        0.1125
     20 C         144.4269  142.0591  163.2460 C.3     1  UNL1        0.1988
     21 F         145.7004  141.7172  162.5309 F       1  UNL1       -0.2309
     22 C         143.1957  142.4045  162.4616 C.ar    1  UNL1        0.0071
     23 C         142.4146  141.3225  161.7769 C.ar    1  UNL1       -0.0017
     24 C         141.1835  141.6679  160.9926 C.ar    1  UNL1        0.0060
     25 C         140.7336  143.0954  160.8930 C.ar    1  UNL1        0.0748
     26 C         141.5148  144.1775  161.5777 C.ar    1  UNL1        0.0234
     27 C         142.7459  143.8321  162.3620 C.ar    1  UNL1       -0.0235
     28 C         143.5272  144.9142  163.0467 C.3     1  UNL1        0.0306
     29 C         140.8333  145.4853  161.3039 C.3     1  UNL1        0.2352
     30 O         139.6308  145.2115  160.4500 O.3     1  UNL1       -0.4404
     31 C         139.5692  143.7345  160.1960 C.2     1  UNL1        0.3413
     32 O         138.5263  143.0217  159.3871 O.2     1  UNL1       -0.2449
@<TRIPOS>BOND
     1    15    16    1
     2    16     9    1
     3     9    10   ar
     4    10    11   ar
     5    11     8    1
     6     8     7    1
     7     7     1    1
     8     1     2    1
     9     2     3    1
    10     3     4    1
    11     4    19    1
    12    19    20    1
    13    20    21    1
    14    20    22    1
    15    22    23   ar
    16    23    24   ar
    17    24    25   ar
    18    25    26   ar
    19    26    27   ar
    20    27    28    1
    21    26    29    1
    22    29    30    1
    23    30    31    1
    24    31    32    2
    25     4     5    1
    26     5     6    1
    27    11    12   ar
    28    12    13   ar
    29    13    14   ar
    30    14    17    1
    31    17    18    3
    32    14     9   ar
    33     6     1    1
    34    27    22   ar
    35    31    25    1
@<TRIPOS>MOLECULE
*****
 32 35 0 0 0
SMALL
GASTEIGER

@<TRIPOS>ATOM
      1 N         141.8168  137.9528  161.8180 N.3     1  UNL1       -0.2700
      2 C         140.3666  138.0679  161.4524 C.3     1  UNL1        0.0897
      3 C         139.3156  137.9907  162.5198 C.3     1  UNL1        0.0897
      4 N         139.7148  137.7983  163.9529 N.3     1  UNL1       -0.2677
      5 C         141.1650  137.6832  164.3185 C.3     1  UNL1        0.0897
      6 C         142.2160  137.7604  163.2511 C.3     1  UNL1        0.0897
      7 C         142.8678  138.0300  160.7506 C.3     1  UNL1        0.0769
      8 C         144.1394  138.7847  161.0032 C.3     1  UNL1        0.0438
      9 C         143.5546  142.6858  161.4377 C.ar    1  UNL1        0.1479
     10 C         143.6033  141.3201  160.8192 C.ar    1  UNL1        0.0334
     11 C         144.0907  140.1503  161.6217 C.ar    1  UNL1       -0.0177
     12 C         144.5296  140.3462  163.0426 C.ar    1  UNL1       -0.0033
     13 C         144.4809  141.7119  163.6611 C.ar    1  UNL1        0.0130
     14 C         143.9934  142.8817  162.8586 C.ar    1  UNL1        0.1023
     15 C         141.5964  144.1298  160.5266 C.3     1  UNL1        0.2525
     16 O         143.0671  143.8557  160.6353 O.3     1  UNL1       -0.4708
     17 C         143.9448  144.2474  163.4772 C.1     1  UNL1        0.1035
     18 N         143.8963  145.6131  164.0957 N.1     1  UNL1       -0.1907
     19 C         138.6638  137.7211  165.0203 C.3     1  UNL1        0.1125
     20 C         138.2211  138.9671  165.7284 C.3     1  UNL1        0.1988
     21 F         137.5801  138.8734  167.0813 F       1  UNL1       -0.2309
     22 C         138.4194  140.3070  165.0836 C.ar    1  UNL1        0.0071
     23 C         137.5026  140.7530  163.9835 C.ar    1  UNL1       -0.0017
     24 C         137.7009  142.0927  163.3388 C.ar    1  UNL1        0.0060
     25 C         138.8161  142.9865  163.7942 C.ar    1  UNL1        0.0748
     26 C         139.7331  142.5405  164.8943 C.ar    1  UNL1        0.0234
     27 C         139.5348  141.2007  165.5391 C.ar    1  UNL1       -0.0235
     28 C         140.4517  140.7546  166.6393 C.3     1  UNL1        0.0306
     29 C         140.7377  143.6290  165.1303 C.3     1  UNL1        0.2352
     30 O         140.4417  144.7478  164.1761 O.3     1  UNL1       -0.4404
     31 C         139.2541  144.3507  163.3503 C.2     1  UNL1        0.3413
     32 O         138.6164  145.1734  162.2702 O.2     1  UNL1       -0.2449
@<TRIPOS>BOND
     1    15    16    1
     2    16     9    1
     3     9    10   ar
     4    10    11   ar
     5    11     8    1
     6     8     7    1
     7     7     1    1
     8     1     2    1
     9     2     3    1
    10     3     4    1
    11     4    19    1
    12    19    20    1
    13    20    21    1
    14    20    22    1
    15    22    23   ar
    16    23    24   ar
    17    24    25   ar
    18    25    26   ar
    19    26    27   ar
    20    27    28    1
    21    26    29    1
    22    29    30    1
    23    30    31    1
    24    31    32    2
    25     4     5    1
    26     5     6    1
    27    11    12   ar
    28    12    13   ar
    29    13    14   ar
    30    14    17    1
    31    17    18    3
    32    14     9   ar
    33     6     1    1
    34    27    22   ar
    35    31    25    1
@<TRIPOS>MOLECULE
*****
 32 35 0 0 0
SMALL
GASTEIGER

@<TRIPOS>ATOM
      1 N         141.3385  138.1906  162.3198 N.3     1  UNL1       -0.2700
      2 C         140.6053  139.4909  162.1728 C.3     1  UNL1        0.0897
      3 C         139.5773  139.8914  163.1892 C.3     1  UNL1        0.0897
      4 N         139.2827  138.9914  164.3526 N.3     1  UNL1       -0.2677
      5 C         140.0159  137.6911  164.4995 C.3     1  UNL1        0.0897
      6 C         141.0438  137.2908  163.4831 C.3     1  UNL1        0.0897
      7 C         142.3664  137.7902  161.3034 C.3     1  UNL1        0.0769
      8 C         143.7427  138.3846  161.3542 C.3     1  UNL1        0.0438
      9 C         144.2868  142.0936  162.6569 C.ar    1  UNL1        0.1479
     10 C         144.0010  140.9406  161.7409 C.ar    1  UNL1        0.0334
     11 C         144.0285  139.5374  162.2703 C.ar    1  UNL1       -0.0177
     12 C         144.3417  139.2871  163.7157 C.ar    1  UNL1       -0.0033
     13 C         144.6274  140.4401  164.6318 C.ar    1  UNL1        0.0130
     14 C         144.6000  141.8433  164.1023 C.ar    1  UNL1        0.1023
     15 C         142.9675  144.2580  162.0871 C.3     1  UNL1        0.2525
     16 O         144.2594  143.4968  162.1276 O.3     1  UNL1       -0.4708
     17 C         144.8857  142.9962  165.0185 C.1     1  UNL1        0.1035
     18 N         145.1714  144.1490  165.9347 N.1     1  UNL1       -0.1907
     19 C         138.2547  139.3918  165.3689 C.3     1  UNL1        0.1125
     20 C         138.5355  139.2105  166.8312 C.3     1  UNL1        0.1988
     21 F         137.7074  138.2576  167.6414 F       1  UNL1       -0.2309
     22 C         139.6445  139.9820  167.4833 C.ar    1  UNL1        0.0071
     23 C         140.8629  140.3569  166.6930 C.ar    1  UNL1       -0.0017
     24 C         141.9718  141.1284  167.3451 C.ar    1  UNL1        0.0060
     25 C         141.8621  141.5249  168.7875 C.ar    1  UNL1        0.0748
     26 C         140.6437  141.1500  169.5779 C.ar    1  UNL1        0.0234
     27 C         139.5348  140.3785  168.9259 C.ar    1  UNL1       -0.0235
     28 C         138.3163  140.0035  169.7162 C.3     1  UNL1        0.0306
     29 C         140.8158  141.6754  170.9723 C.3     1  UNL1        0.2352
     30 O         142.1407  142.3751  171.0437 O.3     1  UNL1       -0.4404
     31 C         142.7874  142.2821  169.6934 C.2     1  UNL1        0.3413
     32 O         144.1245  142.8471  169.3155 O.2     1  UNL1       -0.2449
@<TRIPOS>BOND
     1    15    16    1
     2    16     9    1
     3     9    10   ar
     4    10    11   ar
     5    11     8    1
     6     8     7    1
     7     7     1    1
     8     1     2    1
     9     2     3    1
    10     3     4    1
    11     4    19    1
    12    19    20    1
    13    20    21    1
    14    20    22    1
    15    22    23   ar
    16    23    24   ar
    17    24    25   ar
    18    25    26   ar
    19    26    27   ar
    20    27    28    1
    21    26    29    1
    22    29    30    1
    23    30    31    1
    24    31    32    2
    25     4     5    1
    26     5     6    1
    27    11    12   ar
    28    12    13   ar
    29    13    14   ar
    30    14    17    1
    31    17    18    3
    32    14     9   ar
    33     6     1    1
    34    27    22   ar
    35    31    25    1
