@<TRIPOS>MOLECULE
*****
 28 31 0 0 0
SMALL
GASTEIGER

@<TRIPOS>ATOM
      1 C         141.4553  143.6419  162.7207 C.3     1  UNL1        0.0035
      2 C         140.3551  144.0290  163.6638 C.3     1  UNL1        0.0215
      3 C         140.4072  143.5907  165.0974 C.3     1  UNL1        0.0922
      4 N         141.5595  142.7652  165.5879 N.pl3   1  UNL1       -0.2932
      5 C         142.6598  142.3781  164.6448 C.3     1  UNL1        0.0922
      6 C         142.6077  142.8164  163.2112 C.3     1  UNL1        0.0215
      7 C         141.6116  142.3269  167.0215 C.ar    1  UNL1        0.1352
      8 C         140.4206  141.6631  167.6466 C.ar    1  UNL1        0.0640
      9 C         140.4727  141.2248  169.0802 C.ar    1  UNL1        0.1532
     10 N         141.7158  141.4503  169.8887 N.ar    1  UNL1       -0.2203
     11 C         142.9068  142.1141  169.2636 C.ar    1  UNL1        0.1417
     12 C         144.1501  142.3396  170.0721 C.3     1  UNL1        0.0737
     13 N         142.8547  142.5524  167.8300 N.ar    1  UNL1       -0.2160
     14 C         139.2815  140.5610  169.7052 C.1     1  UNL1        0.1199
     15 N         138.0905  139.8972  170.3302 N.1     1  UNL1       -0.1893
     16 N         141.2991  144.9568  158.4200 N.pl3   1  UNL1       -0.2920
     17 C         140.3419  145.5388  159.4174 C.3     1  UNL1        0.0922
     18 C         140.3940  145.1005  160.8510 C.3     1  UNL1        0.0215
     19 C         141.4032  144.0802  161.2871 C.3     1  UNL1        0.0035
     20 C         142.3604  143.4981  160.2897 C.3     1  UNL1        0.0215
     21 C         142.3083  143.9365  158.8561 C.3     1  UNL1        0.0922
     22 C         141.0907  146.7100  152.6856 C.3     1  UNL1        0.0538
     23 C         141.1428  146.2717  154.1192 C.ar    1  UNL1        0.0786
     24 C         140.1576  146.8213  155.1078 C.ar    1  UNL1        0.1150
     25 N         140.2097  146.3830  156.5414 N.ar    1  UNL1       -0.2263
     26 C         141.2470  145.3951  156.9864 C.ar    1  UNL1        0.1511
     27 C         142.2321  144.8455  155.9978 C.ar    1  UNL1        0.1326
     28 N         142.1800  145.2838  154.5642 N.ar    1  UNL1       -0.2437
@<TRIPOS>BOND
     1    22    23    1
     2    23    24   ar
     3    24    25   ar
     4    25    26   ar
     5    26    16    1
     6    16    17    1
     7    17    18    1
     8    18    19    1
     9    19     1    1
    10     1     2    1
    11     2     3    1
    12     3     4    1
    13     4     7    1
    14     7     8   ar
    15     8     9   ar
    16     9    14    1
    17    14    15    3
    18     9    10   ar
    19    10    11   ar
    20    11    12    1
    21    11    13   ar
    22     4     5    1
    23     5     6    1
    24    19    20    1
    25    20    21    1
    26    26    27   ar
    27    27    28   ar
    28    28    23   ar
    29    21    16    1
    30     6     1    1
    31    13     7   ar
@<TRIPOS>MOLECULE
*****
 28 31 0 0 0
SMALL
GASTEIGER

@<TRIPOS>ATOM
      1 C         139.6252  143.0045  161.7181 C.3     1  UNL1        0.0035
      2 C         138.3013  142.9971  162.4231 C.3     1  UNL1        0.0215
      3 C         138.1523  142.2788  163.7315 C.3     1  UNL1        0.0922
      4 N         139.3273  141.5680  164.3349 N.pl3   1  UNL1       -0.2932
      5 C         140.6512  141.5755  163.6299 C.3     1  UNL1        0.0922
      6 C         140.8002  142.2937  162.3215 C.3     1  UNL1        0.0215
      7 C         139.1783  140.8498  165.6434 C.ar    1  UNL1        0.1352
      8 C         139.9292  141.3274  166.8508 C.ar    1  UNL1        0.0640
      9 C         139.7802  140.6091  168.1592 C.ar    1  UNL1        0.1532
     10 N         138.8803  139.4134  168.2602 N.ar    1  UNL1       -0.2203
     11 C         138.1294  138.9358  167.0527 C.ar    1  UNL1        0.1417
     12 C         137.2294  137.7400  167.1537 C.3     1  UNL1        0.0737
     13 N         138.2784  139.6540  165.7443 N.ar    1  UNL1       -0.2160
     14 C         140.5312  141.0867  169.3667 C.1     1  UNL1        0.1199
     15 N         141.2821  141.5643  170.5742 N.1     1  UNL1       -0.1893
     16 N         140.0721  145.1591  157.7928 N.pl3   1  UNL1       -0.2920
     17 C         140.4326  145.8514  159.0737 C.3     1  UNL1        0.0922
     18 C         140.2836  145.1332  160.3821 C.3     1  UNL1        0.0215
     19 C         139.7742  143.7227  160.4097 C.3     1  UNL1        0.0035
     20 C         139.4137  143.0304  159.1288 C.3     1  UNL1        0.0215
     21 C         139.5627  143.7486  157.8204 C.3     1  UNL1        0.0922
     22 C         140.6681  148.0320  152.5592 C.3     1  UNL1        0.0538
     23 C         140.5191  147.3138  153.8676 C.ar    1  UNL1        0.0786
     24 C         139.5568  147.8250  154.8984 C.ar    1  UNL1        0.1150
     25 N         139.4079  147.1068  156.2069 N.ar    1  UNL1       -0.2263
     26 C         140.2211  145.8774  156.4844 C.ar    1  UNL1        0.1511
     27 C         141.1834  145.3662  155.4536 C.ar    1  UNL1        0.1326
     28 N         141.3324  146.0844  154.1451 N.ar    1  UNL1       -0.2437
@<TRIPOS>BOND
     1    22    23    1
     2    23    24   ar
     3    24    25   ar
     4    25    26   ar
     5    26    16    1
     6    16    17    1
     7    17    18    1
     8    18    19    1
     9    19     1    1
    10     1     2    1
    11     2     3    1
    12     3     4    1
    13     4     7    1
    14     7     8   ar
    15     8     9   ar
    16     9    14    1
    17    14    15    3
    18     9    10   ar
    19    10    11   ar
    20    11    12    1
    21    11    13   ar
    22     4     5    1
    23     5     6    1
    24    19    20    1
    25    20    21    1
    26    26    27   ar
    27    27    28   ar
    28    28    23   ar
    29    21    16    1
    30     6     1    1
    31    13     7   ar
@<TRIPOS>MOLECULE
*****
 28 31 0 0 0
SMALL
GASTEIGER

@<TRIPOS>ATOM
      1 C         143.3755  141.1179  162.6578 C.3     1  UNL1        0.0035
      2 C         142.1828  140.3524  163.1491 C.3     1  UNL1        0.0215
      3 C         141.8361  140.3594  164.6084 C.3     1  UNL1        0.0922
      4 N         142.6822  141.1320  165.5765 N.pl3   1  UNL1       -0.2932
      5 C         143.8749  141.8975  165.0853 C.3     1  UNL1        0.0922
      6 C         144.2216  141.8904  163.6259 C.3     1  UNL1        0.0215
      7 C         142.3355  141.1391  167.0359 C.ar    1  UNL1        0.1352
      8 C         141.6872  142.3458  167.6469 C.ar    1  UNL1        0.0640
      9 C         141.3405  142.3529  169.1063 C.ar    1  UNL1        0.1532
     10 N         141.6422  141.1532  169.9547 N.ar    1  UNL1       -0.2203
     11 C         142.2905  139.9465  169.3436 C.ar    1  UNL1        0.1417
     12 C         142.5923  138.7467  170.1920 C.3     1  UNL1        0.0737
     13 N         142.6372  139.9394  167.8843 N.ar    1  UNL1       -0.2160
     14 C         140.6921  143.5597  169.7173 C.1     1  UNL1        0.1199
     15 N         140.0438  144.7665  170.3283 N.1     1  UNL1       -0.1893
     16 N         144.4155  141.0966  158.2797 N.pl3   1  UNL1       -0.2920
     17 C         144.6366  142.3347  159.0971 C.3     1  UNL1        0.0922
     18 C         144.2900  142.3418  160.5564 C.3     1  UNL1        0.0215
     19 C         143.7222  141.1108  161.1984 C.3     1  UNL1        0.0035
     20 C         143.5010  139.8727  160.3810 C.3     1  UNL1        0.0215
     21 C         143.8477  139.8656  158.9216 C.3     1  UNL1        0.0922
     22 C         145.8021  141.0683  152.4422 C.3     1  UNL1        0.0538
     23 C         145.4555  141.0754  153.9015 C.ar    1  UNL1        0.0786
     24 C         145.3562  139.7823  154.6551 C.ar    1  UNL1        0.1150
     25 N         145.0095  139.7894  156.1145 N.ar    1  UNL1       -0.2263
     26 C         144.7622  141.0896  156.8203 C.ar    1  UNL1        0.1511
     27 C         144.8614  142.3827  156.0667 C.ar    1  UNL1        0.1326
     28 N         145.2081  142.3756  154.6073 N.ar    1  UNL1       -0.2437
@<TRIPOS>BOND
     1    22    23    1
     2    23    24   ar
     3    24    25   ar
     4    25    26   ar
     5    26    16    1
     6    16    17    1
     7    17    18    1
     8    18    19    1
     9    19     1    1
    10     1     2    1
    11     2     3    1
    12     3     4    1
    13     4     7    1
    14     7     8   ar
    15     8     9   ar
    16     9    14    1
    17    14    15    3
    18     9    10   ar
    19    10    11   ar
    20    11    12    1
    21    11    13   ar
    22     4     5    1
    23     5     6    1
    24    19    20    1
    25    20    21    1
    26    26    27   ar
    27    27    28   ar
    28    28    23   ar
    29    21    16    1
    30     6     1    1
    31    13     7   ar
@<TRIPOS>MOLECULE
*****
 28 31 0 0 0
SMALL
GASTEIGER

@<TRIPOS>ATOM
      1 C         139.2625  141.4348  162.6779 C.3     1  UNL1        0.0035
      2 C         138.3098  141.0448  163.7688 C.3     1  UNL1        0.0215
      3 C         138.7533  141.0832  165.2012 C.3     1  UNL1        0.0922
      4 N         140.1496  141.5117  165.5427 N.pl3   1  UNL1       -0.2932
      5 C         141.1024  141.9017  164.4519 C.3     1  UNL1        0.0922
      6 C         140.6588  141.8633  163.0194 C.3     1  UNL1        0.0215
      7 C         140.5931  141.5501  166.9751 C.ar    1  UNL1        0.1352
      8 C         141.2867  140.3644  167.5776 C.ar    1  UNL1        0.0640
      9 C         141.7302  140.4028  169.0100 C.ar    1  UNL1        0.1532
     10 N         141.4802  141.6270  169.8400 N.ar    1  UNL1       -0.2203
     11 C         140.7867  142.8127  169.2375 C.ar    1  UNL1        0.1417
     12 C         140.5366  144.0370  170.0675 C.3     1  UNL1        0.0737
     13 N         140.3431  142.7743  167.8051 N.ar    1  UNL1       -0.2160
     14 C         142.4238  139.2170  169.6125 C.1     1  UNL1        0.1199
     15 N         143.1173  138.0313  170.2148 N.1     1  UNL1       -0.1893
     16 N         137.9319  141.3195  158.3807 N.pl3   1  UNL1       -0.2920
     17 C         138.5078  142.5804  158.9539 C.3     1  UNL1        0.0922
     18 C         138.9514  142.6188  160.3863 C.3     1  UNL1        0.0215
     19 C         138.8190  141.3964  161.2455 C.3     1  UNL1        0.0035
     20 C         138.2431  140.1356  160.6722 C.3     1  UNL1        0.0215
     21 C         137.7996  140.0972  159.2398 C.3     1  UNL1        0.0922
     22 C         136.1578  141.1658  152.6510 C.3     1  UNL1        0.0538
     23 C         136.6014  141.2042  154.0834 C.ar    1  UNL1        0.0786
     24 C         137.0898  139.9531  154.7511 C.ar    1  UNL1        0.1150
     25 N         137.5334  139.9915  156.1835 N.ar    1  UNL1       -0.2263
     26 C         137.4884  141.2811  156.9482 C.ar    1  UNL1        0.1511
     27 C         136.9999  142.5323  156.2805 C.ar    1  UNL1        0.1326
     28 N         136.5564  142.4939  154.8481 N.ar    1  UNL1       -0.2437
@<TRIPOS>BOND
     1    22    23    1
     2    23    24   ar
     3    24    25   ar
     4    25    26   ar
     5    26    16    1
     6    16    17    1
     7    17    18    1
     8    18    19    1
     9    19     1    1
    10     1     2    1
    11     2     3    1
    12     3     4    1
    13     4     7    1
    14     7     8   ar
    15     8     9   ar
    16     9    14    1
    17    14    15    3
    18     9    10   ar
    19    10    11   ar
    20    11    12    1
    21    11    13   ar
    22     4     5    1
    23     5     6    1
    24    19    20    1
    25    20    21    1
    26    26    27   ar
    27    27    28   ar
    28    28    23   ar
    29    21    16    1
    30     6     1    1
    31    13     7   ar
@<TRIPOS>MOLECULE
*****
 28 31 0 0 0
SMALL
GASTEIGER

@<TRIPOS>ATOM
      1 C         141.4136  139.1270  162.3784 C.3     1  UNL1        0.0035
      2 C         142.0238  138.2430  163.4253 C.3     1  UNL1        0.0215
      3 C         141.9832  138.6511  164.8682 C.3     1  UNL1        0.0922
      4 N         141.3323  139.9432  165.2641 N.pl3   1  UNL1       -0.2932
      5 C         140.7220  140.8272  164.2172 C.3     1  UNL1        0.0922
      6 C         140.7627  140.4191  162.7743 C.3     1  UNL1        0.0215
      7 C         141.2917  140.3513  166.7069 C.ar    1  UNL1        0.1352
      8 C         140.0919  140.0238  167.5455 C.ar    1  UNL1        0.0640
      9 C         140.0513  140.4319  168.9884 C.ar    1  UNL1        0.1532
     10 N         141.2104  141.1675  169.5926 N.ar    1  UNL1       -0.2203
     11 C         142.4102  141.4951  168.7541 C.ar    1  UNL1        0.1417
     12 C         143.5694  142.2308  169.3583 C.3     1  UNL1        0.0737
     13 N         142.4508  141.0870  167.3112 N.ar    1  UNL1       -0.2160
     14 C         138.8514  140.1043  169.8269 C.1     1  UNL1        0.1199
     15 N         137.6517  139.7767  170.6655 N.1     1  UNL1       -0.1893
     16 N         141.5355  137.9027  158.0499 N.pl3   1  UNL1       -0.2920
     17 C         140.2822  138.4899  158.6282 C.3     1  UNL1        0.0922
     18 C         140.2416  138.8980  160.0710 C.3     1  UNL1        0.0215
     19 C         141.4542  138.7189  160.9356 C.3     1  UNL1        0.0035
     20 C         142.7074  138.1317  160.3572 C.3     1  UNL1        0.0215
     21 C         142.7481  137.7235  158.9144 C.3     1  UNL1        0.0922
     22 C         141.6980  136.2702  152.2785 C.3     1  UNL1        0.0538
     23 C         141.6573  136.6783  153.7214 C.ar    1  UNL1        0.0786
     24 C         142.4142  135.8867  154.7463 C.ar    1  UNL1        0.1150
     25 N         142.3735  136.2948  156.1891 N.ar    1  UNL1       -0.2263
     26 C         141.5761  137.4946  156.6070 C.ar    1  UNL1        0.1511
     27 C         140.8193  138.2862  155.5821 C.ar    1  UNL1        0.1326
     28 N         140.8599  137.8781  154.1393 N.ar    1  UNL1       -0.2437
@<TRIPOS>BOND
     1    22    23    1
     2    23    24   ar
     3    24    25   ar
     4    25    26   ar
     5    26    16    1
     6    16    17    1
     7    17    18    1
     8    18    19    1
     9    19     1    1
    10     1     2    1
    11     2     3    1
    12     3     4    1
    13     4     7    1
    14     7     8   ar
    15     8     9   ar
    16     9    14    1
    17    14    15    3
    18     9    10   ar
    19    10    11   ar
    20    11    12    1
    21    11    13   ar
    22     4     5    1
    23     5     6    1
    24    19    20    1
    25    20    21    1
    26    26    27   ar
    27    27    28   ar
    28    28    23   ar
    29    21    16    1
    30     6     1    1
    31    13     7   ar
@<TRIPOS>MOLECULE
*****
 28 31 0 0 0
SMALL
GASTEIGER

@<TRIPOS>ATOM
      1 C         142.2578  140.7327  162.2176 C.3     1  UNL1        0.0035
      2 C         142.7255  139.6697  163.1668 C.3     1  UNL1        0.0215
      3 C         141.9706  139.4139  164.4375 C.3     1  UNL1        0.0922
      4 N         140.7479  140.2211  164.7589 N.pl3   1  UNL1       -0.2932
      5 C         140.2801  141.2842  163.8097 C.3     1  UNL1        0.0922
      6 C         141.0351  141.5400  162.5390 C.3     1  UNL1        0.0215
      7 C         139.9929  139.9653  166.0296 C.ar    1  UNL1        0.1352
      8 C         140.3533  140.7122  167.2794 C.ar    1  UNL1        0.0640
      9 C         139.5983  140.4563  168.5501 C.ar    1  UNL1        0.1532
     10 N         138.4830  139.4537  168.5709 N.ar    1  UNL1       -0.2203
     11 C         138.1225  138.7068  167.3210 C.ar    1  UNL1        0.1417
     12 C         137.0071  137.7040  167.3417 C.3     1  UNL1        0.0737
     13 N         138.8775  138.9626  166.0503 N.ar    1  UNL1       -0.2160
     14 C         139.9588  141.2033  169.8000 C.1     1  UNL1        0.1199
     15 N         140.3193  141.9502  171.0498 N.1     1  UNL1       -0.1893
     16 N         144.5227  141.5002  158.4056 N.pl3   1  UNL1       -0.2920
     17 C         143.7508  140.2254  158.5757 C.3     1  UNL1        0.0922
     18 C         142.9959  139.9696  159.8464 C.3     1  UNL1        0.0215
     19 C         143.0128  140.9886  160.9469 C.3     1  UNL1        0.0035
     20 C         143.7847  142.2634  160.7768 C.3     1  UNL1        0.0215
     21 C         144.5396  142.5192  159.5062 C.3     1  UNL1        0.0922
     22 C         147.5426  142.5234  153.3230 C.3     1  UNL1        0.0538
     23 C         146.7876  142.2676  154.5936 C.ar    1  UNL1        0.0786
     24 C         147.3377  142.7502  155.9030 C.ar    1  UNL1        0.1150
     25 N         146.5827  142.4944  157.1736 N.ar    1  UNL1       -0.2263
     26 C         145.2777  141.7560  157.1349 C.ar    1  UNL1        0.1511
     27 C         144.7276  141.2734  155.8256 C.ar    1  UNL1        0.1326
     28 N         145.4826  141.5292  154.5549 N.ar    1  UNL1       -0.2437
@<TRIPOS>BOND
     1    22    23    1
     2    23    24   ar
     3    24    25   ar
     4    25    26   ar
     5    26    16    1
     6    16    17    1
     7    17    18    1
     8    18    19    1
     9    19     1    1
    10     1     2    1
    11     2     3    1
    12     3     4    1
    13     4     7    1
    14     7     8   ar
    15     8     9   ar
    16     9    14    1
    17    14    15    3
    18     9    10   ar
    19    10    11   ar
    20    11    12    1
    21    11    13   ar
    22     4     5    1
    23     5     6    1
    24    19    20    1
    25    20    21    1
    26    26    27   ar
    27    27    28   ar
    28    28    23   ar
    29    21    16    1
    30     6     1    1
    31    13     7   ar
@<TRIPOS>MOLECULE
*****
 28 31 0 0 0
SMALL
GASTEIGER

@<TRIPOS>ATOM
      1 C         141.8869  139.3684  163.2399 C.3     1  UNL1        0.0035
      2 C         142.2811  138.3911  164.3073 C.3     1  UNL1        0.0215
      3 C         142.3189  138.8235  165.7432 C.3     1  UNL1        0.0922
      4 N         141.9625  140.2331  166.1116 N.pl3   1  UNL1       -0.2932
      5 C         141.5683  141.2104  165.0442 C.3     1  UNL1        0.0922
      6 C         141.5305  140.7781  163.6083 C.3     1  UNL1        0.0215
      7 C         142.0003  140.6655  167.5474 C.ar    1  UNL1        0.1352
      8 C         141.3029  141.9244  167.9703 C.ar    1  UNL1        0.0640
      9 C         141.3407  142.3567  169.4061 C.ar    1  UNL1        0.1532
     10 N         142.0759  141.5302  170.4191 N.ar    1  UNL1       -0.2203
     11 C         142.7733  140.2713  169.9963 C.ar    1  UNL1        0.1417
     12 C         143.5085  139.4447  171.0094 C.3     1  UNL1        0.0737
     13 N         142.7355  139.8390  168.5605 N.ar    1  UNL1       -0.2160
     14 C         140.6433  143.6157  169.8289 C.1     1  UNL1        0.1199
     15 N         139.9458  144.8746  170.2517 N.1     1  UNL1       -0.1893
     16 N         141.7735  138.0714  158.9324 N.pl3   1  UNL1       -0.2920
     17 C         142.9756  137.7664  159.7761 C.3     1  UNL1        0.0922
     18 C         143.0134  138.1988  161.2119 C.3     1  UNL1        0.0215
     19 C         141.8491  138.9361  161.8041 C.3     1  UNL1        0.0035
     20 C         140.6470  139.2411  160.9604 C.3     1  UNL1        0.0215
     21 C         140.6092  138.8087  159.5245 C.3     1  UNL1        0.0922
     22 C         141.6223  136.3420  153.1890 C.3     1  UNL1        0.0538
     23 C         141.6601  136.7743  154.6249 C.ar    1  UNL1        0.0786
     24 C         140.3805  136.9811  155.3798 C.ar    1  UNL1        0.1150
     25 N         140.4183  137.4135  156.8156 N.ar    1  UNL1       -0.2263
     26 C         141.7357  137.6390  157.4965 C.ar    1  UNL1        0.1511
     27 C         143.0152  137.4323  156.7416 C.ar    1  UNL1        0.1326
     28 N         142.9774  136.9999  155.3058 N.ar    1  UNL1       -0.2437
@<TRIPOS>BOND
     1    22    23    1
     2    23    24   ar
     3    24    25   ar
     4    25    26   ar
     5    26    16    1
     6    16    17    1
     7    17    18    1
     8    18    19    1
     9    19     1    1
    10     1     2    1
    11     2     3    1
    12     3     4    1
    13     4     7    1
    14     7     8   ar
    15     8     9   ar
    16     9    14    1
    17    14    15    3
    18     9    10   ar
    19    10    11   ar
    20    11    12    1
    21    11    13   ar
    22     4     5    1
    23     5     6    1
    24    19    20    1
    25    20    21    1
    26    26    27   ar
    27    27    28   ar
    28    28    23   ar
    29    21    16    1
    30     6     1    1
    31    13     7   ar
@<TRIPOS>MOLECULE
*****
 28 31 0 0 0
SMALL
GASTEIGER

@<TRIPOS>ATOM
      1 C         141.3515  139.1498  162.4620 C.3     1  UNL1        0.0035
      2 C         142.0006  140.4364  162.8784 C.3     1  UNL1        0.0215
      3 C         141.9658  140.8631  164.3160 C.3     1  UNL1        0.0922
      4 N         141.2820  140.0032  165.3372 N.pl3   1  UNL1       -0.2932
      5 C         140.6329  138.7166  164.9208 C.3     1  UNL1        0.0922
      6 C         140.6677  138.2900  163.4832 C.3     1  UNL1        0.0215
      7 C         141.2472  140.4299  166.7748 C.ar    1  UNL1        0.1352
      8 C         142.4332  141.1193  167.3814 C.ar    1  UNL1        0.0640
      9 C         142.3984  141.5460  168.8190 C.ar    1  UNL1        0.1532
     10 N         141.1776  141.2833  169.6500 N.ar    1  UNL1       -0.2203
     11 C         139.9916  140.5938  169.0434 C.ar    1  UNL1        0.1417
     12 C         138.7708  140.3310  169.8744 C.3     1  UNL1        0.0737
     13 N         140.0264  140.1671  167.6058 N.ar    1  UNL1       -0.2160
     14 C         143.5845  142.2355  169.4256 C.1     1  UNL1        0.1199
     15 N         144.7705  142.9250  170.0322 N.1     1  UNL1       -0.1893
     16 N         141.4559  137.8698  158.1491 N.pl3   1  UNL1       -0.2920
     17 C         140.1749  138.3620  158.7546 C.3     1  UNL1        0.0922
     18 C         140.1401  138.7887  160.1922 C.3     1  UNL1        0.0215
     19 C         141.3863  138.7231  161.0244 C.3     1  UNL1        0.0035
     20 C         142.6673  138.2309  160.4189 C.3     1  UNL1        0.0215
     21 C         142.7021  137.8042  158.9813 C.3     1  UNL1        0.0922
     22 C         141.5950  136.1630  152.3987 C.3     1  UNL1        0.0538
     23 C         141.5602  136.5897  153.8363 C.ar    1  UNL1        0.0786
     24 C         140.2442  136.7909  154.5273 C.ar    1  UNL1        0.1150
     25 N         140.2094  137.2175  155.9649 N.ar    1  UNL1       -0.2263
     26 C         141.4907  137.4431  156.7115 C.ar    1  UNL1        0.1511
     27 C         142.8067  137.2419  156.0205 C.ar    1  UNL1        0.1326
     28 N         142.8415  136.8152  154.5829 N.ar    1  UNL1       -0.2437
@<TRIPOS>BOND
     1    22    23    1
     2    23    24   ar
     3    24    25   ar
     4    25    26   ar
     5    26    16    1
     6    16    17    1
     7    17    18    1
     8    18    19    1
     9    19     1    1
    10     1     2    1
    11     2     3    1
    12     3     4    1
    13     4     7    1
    14     7     8   ar
    15     8     9   ar
    16     9    14    1
    17    14    15    3
    18     9    10   ar
    19    10    11   ar
    20    11    12    1
    21    11    13   ar
    22     4     5    1
    23     5     6    1
    24    19    20    1
    25    20    21    1
    26    26    27   ar
    27    27    28   ar
    28    28    23   ar
    29    21    16    1
    30     6     1    1
    31    13     7   ar
@<TRIPOS>MOLECULE
*****
 28 31 0 0 0
SMALL
GASTEIGER

@<TRIPOS>ATOM
      1 C         139.9412  140.4067  162.4890 C.3     1  UNL1        0.0035
      2 C         140.6933  141.6161  162.9597 C.3     1  UNL1        0.0215
      3 C         140.9927  141.7922  164.4189 C.3     1  UNL1        0.0922
      4 N         140.5399  140.7589  165.4074 N.pl3   1  UNL1       -0.2932
      5 C         139.7877  139.5495  164.9367 C.3     1  UNL1        0.0922
      6 C         139.4883  139.3734  163.4775 C.3     1  UNL1        0.0215
      7 C         140.8392  140.9350  166.8667 C.ar    1  UNL1        0.1352
      8 C         140.4736  142.2148  167.5582 C.ar    1  UNL1        0.0640
      9 C         140.7730  142.3909  169.0174 C.ar    1  UNL1        0.1532
     10 N         141.4379  141.2871  169.7852 N.ar    1  UNL1       -0.2203
     11 C         141.8035  140.0073  169.0937 C.ar    1  UNL1        0.1417
     12 C         142.4685  138.9034  169.8614 C.3     1  UNL1        0.0737
     13 N         141.5042  139.8312  167.6344 N.ar    1  UNL1       -0.2160
     14 C         140.4073  143.6709  169.7089 C.1     1  UNL1        0.1199
     15 N         140.0417  144.9508  170.4004 N.1     1  UNL1       -0.1893
     16 N         139.0431  139.8784  158.1112 N.pl3   1  UNL1       -0.2920
     17 C         139.6548  138.7535  158.8924 C.3     1  UNL1        0.0922
     18 C         139.9542  138.9296  160.3517 C.3     1  UNL1        0.0215
     19 C         139.6418  140.2306  161.0297 C.3     1  UNL1        0.0035
     20 C         139.0301  141.3555  160.2485 C.3     1  UNL1        0.0215
     21 C         138.7307  141.1794  158.7893 C.3     1  UNL1        0.0922
     22 C         137.8457  139.1741  152.2743 C.3     1  UNL1        0.0538
     23 C         138.1450  139.3502  153.7335 C.ar    1  UNL1        0.0786
     24 C         138.5323  138.1654  154.5680 C.ar    1  UNL1        0.1150
     25 N         138.8317  138.3415  156.0272 N.ar    1  UNL1       -0.2263
     26 C         138.7438  139.7023  156.6520 C.ar    1  UNL1        0.1511
     27 C         138.3565  140.8871  155.8175 C.ar    1  UNL1        0.1326
     28 N         138.0571  140.7110  154.3583 N.ar    1  UNL1       -0.2437
@<TRIPOS>BOND
     1    22    23    1
     2    23    24   ar
     3    24    25   ar
     4    25    26   ar
     5    26    16    1
     6    16    17    1
     7    17    18    1
     8    18    19    1
     9    19     1    1
    10     1     2    1
    11     2     3    1
    12     3     4    1
    13     4     7    1
    14     7     8   ar
    15     8     9   ar
    16     9    14    1
    17    14    15    3
    18     9    10   ar
    19    10    11   ar
    20    11    12    1
    21    11    13   ar
    22     4     5    1
    23     5     6    1
    24    19    20    1
    25    20    21    1
    26    26    27   ar
    27    27    28   ar
    28    28    23   ar
    29    21    16    1
    30     6     1    1
    31    13     7   ar
