@<TRIPOS>MOLECULE
*****
 30 34 0 0 0
SMALL
GASTEIGER

@<TRIPOS>ATOM
      1 C         139.9048  143.1876  160.6779 C.ar    1  UNL1        0.1098
      2 C         140.6773  143.1888  161.9636 C.ar    1  UNL1        0.0891
      3 N         140.5807  142.0192  162.8978 N.ar    1  UNL1       -0.2900
      4 C         139.7114  140.8483  162.5462 C.ar    1  UNL1        0.1507
      5 N         139.6147  139.6787  163.4804 N.ar    1  UNL1       -0.2263
      6 C         138.7455  138.5080  163.1288 C.ar    1  UNL1        0.1005
      7 C         137.9730  138.5067  161.8430 C.ar    1  UNL1        0.0209
      8 C         138.0697  139.6763  160.9088 C.ar    1  UNL1        0.0078
      9 C         138.9389  140.8471  161.2604 C.ar    1  UNL1        0.0736
     10 C         139.0356  142.0168  160.3263 C.ar    1  UNL1        0.2043
     11 O         138.2631  142.0156  159.0405 O.2     1  UNL1       -0.2863
     12 C         141.3532  142.0204  164.1836 C.ar    1  UNL1        0.0654
     13 C         142.8523  142.0638  164.1577 C.ar    1  UNL1        0.0176
     14 C         143.6248  142.0650  165.4435 C.ar    1  UNL1        0.0015
     15 C         142.8983  142.0228  166.7551 C.ar    1  UNL1        0.0001
     16 C         141.3991  141.9795  166.7809 C.ar    1  UNL1        0.0015
     17 C         140.6265  141.9782  165.4952 C.ar    1  UNL1        0.0176
     18 C         140.6725  141.9373  168.0925 C.ar    1  UNL1        0.0031
     19 C         140.7117  143.1233  169.0101 C.ar    1  UNL1        0.0207
     20 C         139.9851  143.0811  170.3216 C.ar    1  UNL1        0.0989
     21 N         139.2193  141.8529  170.7157 N.ar    1  UNL1       -0.2423
     22 C         139.1801  140.6670  169.7981 C.ar    1  UNL1        0.0989
     23 C         139.9067  140.7092  168.4865 C.ar    1  UNL1        0.0207
     24 O         139.8330  145.7522  160.2686 O.2     1  UNL1       -0.2700
     25 C         140.0015  144.3572  159.7437 C.2     1  UNL1        0.2504
     26 N         140.2667  144.1318  158.2846 N.am    1  UNL1       -0.3024
     27 H         140.3773  143.2162  157.9401 H       1  UNL1        0.1497
     28 C         140.3634  145.3014  157.3505 C.3     1  UNL1        0.0720
     29 C         141.1233  146.0794  156.3174 C.3     1  UNL1        0.0213
     30 C         139.7711  146.5491  156.7655 C.3     1  UNL1        0.0213
@<TRIPOS>BOND
     1    24    25    2
     2    25    26   am
     3    26    28    1
     4    28    29    1
     5    29    30    1
     6    25     1    1
     7     1     2   ar
     8     2     3   ar
     9     3    12    1
    10    12    13   ar
    11    13    14   ar
    12    14    15   ar
    13    15    16   ar
    14    16    18    1
    15    18    19   ar
    16    19    20   ar
    17    20    21   ar
    18    21    22   ar
    19    22    23   ar
    20    16    17   ar
    21     3     4   ar
    22     4     5   ar
    23     5     6   ar
    24     6     7   ar
    25     7     8   ar
    26     8     9   ar
    27     9    10   ar
    28    10    11    2
    29    30    28    1
    30    10     1   ar
    31    17    12   ar
    32     9     4   ar
    33    23    18   ar
    34    26    27    1
@<TRIPOS>MOLECULE
*****
 30 34 0 0 0
SMALL
GASTEIGER

@<TRIPOS>ATOM
      1 C         141.3246  143.1772  161.4509 C.ar    1  UNL1        0.1098
      2 C         140.5309  142.5390  162.5521 C.ar    1  UNL1        0.0891
      3 N         141.2252  141.7201  163.5996 N.ar    1  UNL1       -0.2900
      4 C         142.7134  141.5394  163.5459 C.ar    1  UNL1        0.1507
      5 N         143.4077  140.7205  164.5934 N.ar    1  UNL1       -0.2263
      6 C         144.8958  140.5399  164.5397 C.ar    1  UNL1        0.1005
      7 C         145.6896  141.1782  163.4385 C.ar    1  UNL1        0.0209
      8 C         144.9952  141.9971  162.3910 C.ar    1  UNL1        0.0078
      9 C         143.5071  142.1777  162.4447 C.ar    1  UNL1        0.0736
     10 C         142.8127  142.9966  161.3972 C.ar    1  UNL1        0.2043
     11 O         143.6064  143.6349  160.2960 O.2     1  UNL1       -0.2863
     12 C         140.4315  141.0818  164.7008 C.ar    1  UNL1        0.0654
     13 C         139.3897  140.0530  164.3751 C.ar    1  UNL1        0.0176
     14 C         138.5960  139.4147  165.4763 C.ar    1  UNL1        0.0015
     15 C         138.8440  139.8053  166.9031 C.ar    1  UNL1        0.0001
     16 C         139.8858  140.8343  167.2288 C.ar    1  UNL1        0.0015
     17 C         140.6796  141.4725  166.1276 C.ar    1  UNL1        0.0176
     18 C         140.1339  141.2249  168.6556 C.ar    1  UNL1        0.0031
     19 C         140.2621  142.6729  169.0254 C.ar    1  UNL1        0.0207
     20 C         140.5101  143.0636  170.4522 C.ar    1  UNL1        0.0989
     21 N         140.6299  142.0061  171.5094 N.ar    1  UNL1       -0.2423
     22 C         140.5017  140.5581  171.1396 C.ar    1  UNL1        0.0989
     23 C         140.2537  140.1675  169.7127 C.ar    1  UNL1        0.0207
     24 O         139.4493  144.8433  160.7745 O.2     1  UNL1       -0.2700
     25 C         140.6302  143.9962  160.4034 C.2     1  UNL1        0.2504
     26 N         141.1167  143.9679  158.9848 N.am    1  UNL1       -0.3024
     27 H         141.8918  143.4119  158.7412 H       1  UNL1        0.1497
     28 C         140.4224  144.7868  157.9373 C.3     1  UNL1        0.0720
     29 C         140.0000  146.1226  157.4014 C.3     1  UNL1        0.0213
     30 C         139.6422  144.8694  156.6589 C.3     1  UNL1        0.0213
@<TRIPOS>BOND
     1    24    25    2
     2    25    26   am
     3    26    28    1
     4    28    29    1
     5    29    30    1
     6    25     1    1
     7     1     2   ar
     8     2     3   ar
     9     3    12    1
    10    12    13   ar
    11    13    14   ar
    12    14    15   ar
    13    15    16   ar
    14    16    18    1
    15    18    19   ar
    16    19    20   ar
    17    20    21   ar
    18    21    22   ar
    19    22    23   ar
    20    16    17   ar
    21     3     4   ar
    22     4     5   ar
    23     5     6   ar
    24     6     7   ar
    25     7     8   ar
    26     8     9   ar
    27     9    10   ar
    28    10    11    2
    29    30    28    1
    30    10     1   ar
    31    17    12   ar
    32     9     4   ar
    33    23    18   ar
    34    26    27    1
@<TRIPOS>MOLECULE
*****
 30 34 0 0 0
SMALL
GASTEIGER

@<TRIPOS>ATOM
      1 C         139.7998  141.1942  161.1206 C.ar    1  UNL1        0.1098
      2 C         139.2621  140.8669  162.4821 C.ar    1  UNL1        0.0891
      3 N         140.1803  140.3382  163.5439 N.ar    1  UNL1       -0.2900
      4 C         141.6362  140.1368  163.2442 C.ar    1  UNL1        0.1507
      5 N         142.5544  139.6082  164.3060 N.ar    1  UNL1       -0.2263
      6 C         144.0102  139.4068  164.0063 C.ar    1  UNL1        0.1005
      7 C         144.5479  139.7342  162.6447 C.ar    1  UNL1        0.0209
      8 C         143.6298  140.2629  161.5830 C.ar    1  UNL1        0.0078
      9 C         142.1739  140.4642  161.8827 C.ar    1  UNL1        0.0736
     10 C         141.2557  140.9929  160.8209 C.ar    1  UNL1        0.2043
     11 O         141.7934  141.3202  159.4594 O.2     1  UNL1       -0.2863
     12 C         139.6426  140.0108  164.9054 C.ar    1  UNL1        0.0654
     13 C         138.5882  138.9555  165.0616 C.ar    1  UNL1        0.0176
     14 C         138.0505  138.6281  166.4231 C.ar    1  UNL1        0.0015
     15 C         138.5672  139.3561  167.6285 C.ar    1  UNL1        0.0001
     16 C         139.6216  140.4116  167.4724 C.ar    1  UNL1        0.0015
     17 C         140.1593  140.7389  166.1108 C.ar    1  UNL1        0.0176
     18 C         140.1383  141.1396  168.6777 C.ar    1  UNL1        0.0031
     19 C         140.4390  142.6069  168.5959 C.ar    1  UNL1        0.0207
     20 C         140.9557  143.3349  169.8013 C.ar    1  UNL1        0.0989
     21 N         141.1716  142.5957  171.0886 N.ar    1  UNL1       -0.2423
     22 C         140.8709  141.1284  171.1704 C.ar    1  UNL1        0.0989
     23 C         140.3542  140.4004  169.9649 C.ar    1  UNL1        0.0207
     24 O         138.0927  142.9748  160.3048 O.2     1  UNL1       -0.2700
     25 C         138.8815  141.7229  160.0588 C.2     1  UNL1        0.2504
     26 N         138.7522  140.9997  158.7510 N.am    1  UNL1       -0.3024
     27 H         139.2700  140.1781  158.5896 H       1  UNL1        0.1497
     28 C         137.8340  141.5284  157.6893 C.3     1  UNL1        0.0720
     29 C         137.3646  142.6596  156.8233 C.3     1  UNL1        0.0213
     30 C         136.7131  141.3128  156.7162 C.3     1  UNL1        0.0213
@<TRIPOS>BOND
     1    24    25    2
     2    25    26   am
     3    26    28    1
     4    28    29    1
     5    29    30    1
     6    25     1    1
     7     1     2   ar
     8     2     3   ar
     9     3    12    1
    10    12    13   ar
    11    13    14   ar
    12    14    15   ar
    13    15    16   ar
    14    16    18    1
    15    18    19   ar
    16    19    20   ar
    17    20    21   ar
    18    21    22   ar
    19    22    23   ar
    20    16    17   ar
    21     3     4   ar
    22     4     5   ar
    23     5     6   ar
    24     6     7   ar
    25     7     8   ar
    26     8     9   ar
    27     9    10   ar
    28    10    11    2
    29    30    28    1
    30    10     1   ar
    31    17    12   ar
    32     9     4   ar
    33    23    18   ar
    34    26    27    1
@<TRIPOS>MOLECULE
*****
 30 34 0 0 0
SMALL
GASTEIGER

@<TRIPOS>ATOM
      1 C         143.5071  142.3202  160.1776 C.ar    1  UNL1        0.1098
      2 C         143.5279  141.5877  161.4864 C.ar    1  UNL1        0.0891
      3 N         142.6788  142.0655  162.6269 N.ar    1  UNL1       -0.2900
      4 C         141.8089  143.2759  162.4586 C.ar    1  UNL1        0.1507
      5 N         140.9598  143.7537  163.5990 N.ar    1  UNL1       -0.2263
      6 C         140.0899  144.9640  163.4307 C.ar    1  UNL1        0.1005
      7 C         140.0691  145.6965  162.1218 C.ar    1  UNL1        0.0209
      8 C         140.9182  145.2187  160.9814 C.ar    1  UNL1        0.0078
      9 C         141.7881  144.0084  161.1497 C.ar    1  UNL1        0.0736
     10 C         142.6372  143.5305  160.0092 C.ar    1  UNL1        0.2043
     11 O         142.6164  144.2630  158.7004 O.2     1  UNL1       -0.2863
     12 C         142.6996  141.3330  163.9357 C.ar    1  UNL1        0.0654
     13 C         143.0128  139.8665  163.9695 C.ar    1  UNL1        0.0176
     14 C         143.0336  139.1340  165.2783 C.ar    1  UNL1        0.0015
     15 C         142.7412  139.8680  166.5533 C.ar    1  UNL1        0.0001
     16 C         142.4280  141.3346  166.5196 C.ar    1  UNL1        0.0015
     17 C         142.4072  142.0671  165.2107 C.ar    1  UNL1        0.0176
     18 C         142.1357  142.0686  167.7946 C.ar    1  UNL1        0.0031
     19 C         140.7809  142.6724  168.0187 C.ar    1  UNL1        0.0207
     20 C         140.4886  143.4064  169.2937 C.ar    1  UNL1        0.0989
     21 N         141.5510  143.5367  170.3447 N.ar    1  UNL1       -0.2423
     22 C         142.9057  142.9329  170.1205 C.ar    1  UNL1        0.0989
     23 C         143.1980  142.1989  168.8454 C.ar    1  UNL1        0.0207
     24 O         144.3516  140.3918  158.6549 O.2     1  UNL1       -0.2700
     25 C         144.3562  141.8423  159.0371 C.2     1  UNL1        0.2504
     26 N         145.2100  142.8150  158.2788 N.am    1  UNL1       -0.3024
     27 H         145.2131  143.7670  158.5296 H       1  UNL1        0.1497
     28 C         146.0591  142.3372  157.1384 C.3     1  UNL1        0.0720
     29 C         147.3415  142.3909  156.3621 C.3     1  UNL1        0.0213
     30 C         146.2475  141.4559  155.9393 C.3     1  UNL1        0.0213
@<TRIPOS>BOND
     1    24    25    2
     2    25    26   am
     3    26    28    1
     4    28    29    1
     5    29    30    1
     6    25     1    1
     7     1     2   ar
     8     2     3   ar
     9     3    12    1
    10    12    13   ar
    11    13    14   ar
    12    14    15   ar
    13    15    16   ar
    14    16    18    1
    15    18    19   ar
    16    19    20   ar
    17    20    21   ar
    18    21    22   ar
    19    22    23   ar
    20    16    17   ar
    21     3     4   ar
    22     4     5   ar
    23     5     6   ar
    24     6     7   ar
    25     7     8   ar
    26     8     9   ar
    27     9    10   ar
    28    10    11    2
    29    30    28    1
    30    10     1   ar
    31    17    12   ar
    32     9     4   ar
    33    23    18   ar
    34    26    27    1
@<TRIPOS>MOLECULE
*****
 30 34 0 0 0
SMALL
GASTEIGER

@<TRIPOS>ATOM
      1 C         141.2385  140.6193  161.3468 C.ar    1  UNL1        0.1098
      2 C         140.7789  140.1074  162.6798 C.ar    1  UNL1        0.0891
      3 N         140.0538  141.0197  163.6241 N.ar    1  UNL1       -0.2900
      4 C         139.7883  142.4441  163.2356 C.ar    1  UNL1        0.1507
      5 N         139.0633  143.3564  164.1800 N.ar    1  UNL1       -0.2263
      6 C         138.7979  144.7806  163.7914 C.ar    1  UNL1        0.1005
      7 C         139.2575  145.2926  162.4585 C.ar    1  UNL1        0.0209
      8 C         139.9826  144.3802  161.5141 C.ar    1  UNL1        0.0078
      9 C         140.2480  142.9560  161.9027 C.ar    1  UNL1        0.0736
     10 C         140.9731  142.0436  160.9583 C.ar    1  UNL1        0.2043
     11 O         141.4327  142.5555  159.6254 O.2     1  UNL1       -0.2863
     12 C         139.5942  140.5078  164.9570 C.ar    1  UNL1        0.0654
     13 C         138.5401  139.4430  165.0286 C.ar    1  UNL1        0.0176
     14 C         138.0805  138.9311  166.3616 C.ar    1  UNL1        0.0015
     15 C         138.6749  139.4840  167.6229 C.ar    1  UNL1        0.0001
     16 C         139.7290  140.5488  167.5513 C.ar    1  UNL1        0.0015
     17 C         140.1886  141.0607  166.2184 C.ar    1  UNL1        0.0176
     18 C         140.3234  141.1016  168.8126 C.ar    1  UNL1        0.0031
     19 C         140.3576  140.2632  170.0560 C.ar    1  UNL1        0.0207
     20 C         140.9520  140.8160  171.3173 C.ar    1  UNL1        0.0989
     21 N         141.5123  142.2074  171.3353 N.ar    1  UNL1       -0.2423
     22 C         141.4781  143.0459  170.0920 C.ar    1  UNL1        0.0989
     23 C         140.8836  142.4929  168.8307 C.ar    1  UNL1        0.0207
     24 O         143.1501  138.9229  160.8796 O.2     1  UNL1       -0.2700
     25 C         141.9636  139.7069  160.4025 C.2     1  UNL1        0.2504
     26 N         141.5022  139.5785  158.9810 N.am    1  UNL1       -0.3024
     27 H         140.7235  140.0931  158.6678 H       1  UNL1        0.1497
     28 C         142.2272  138.6662  158.0366 C.3     1  UNL1        0.0720
     29 C         143.0362  138.4640  156.7897 C.3     1  UNL1        0.0213
     30 C         142.6741  137.2881  157.6477 C.3     1  UNL1        0.0213
@<TRIPOS>BOND
     1    24    25    2
     2    25    26   am
     3    26    28    1
     4    28    29    1
     5    29    30    1
     6    25     1    1
     7     1     2   ar
     8     2     3   ar
     9     3    12    1
    10    12    13   ar
    11    13    14   ar
    12    14    15   ar
    13    15    16   ar
    14    16    18    1
    15    18    19   ar
    16    19    20   ar
    17    20    21   ar
    18    21    22   ar
    19    22    23   ar
    20    16    17   ar
    21     3     4   ar
    22     4     5   ar
    23     5     6   ar
    24     6     7   ar
    25     7     8   ar
    26     8     9   ar
    27     9    10   ar
    28    10    11    2
    29    30    28    1
    30    10     1   ar
    31    17    12   ar
    32     9     4   ar
    33    23    18   ar
    34    26    27    1
@<TRIPOS>MOLECULE
*****
 30 34 0 0 0
SMALL
GASTEIGER

@<TRIPOS>ATOM
      1 C         141.3135  140.5093  161.2195 C.ar    1  UNL1        0.1098
      2 C         141.5919  139.8440  162.5347 C.ar    1  UNL1        0.0891
      3 N         142.3242  140.5883  163.6116 N.ar    1  UNL1       -0.2900
      4 C         142.7781  141.9980  163.3732 C.ar    1  UNL1        0.1507
      5 N         143.5104  142.7424  164.4500 N.ar    1  UNL1       -0.2263
      6 C         143.9643  144.1520  164.2117 C.ar    1  UNL1        0.1005
      7 C         143.6859  144.8173  162.8964 C.ar    1  UNL1        0.0209
      8 C         142.9536  144.0730  161.8195 C.ar    1  UNL1        0.0078
      9 C         142.4997  142.6633  162.0579 C.ar    1  UNL1        0.0736
     10 C         141.7674  141.9189  160.9811 C.ar    1  UNL1        0.2043
     11 O         141.4890  142.5842  159.6658 O.2     1  UNL1       -0.2863
     12 C         142.6026  139.9230  164.9268 C.ar    1  UNL1        0.0654
     13 C         143.6153  138.8197  165.0097 C.ar    1  UNL1        0.0176
     14 C         143.8937  138.1544  166.3249 C.ar    1  UNL1        0.0015
     15 C         143.1594  138.5924  167.5573 C.ar    1  UNL1        0.0001
     16 C         142.1465  139.6958  167.4745 C.ar    1  UNL1        0.0015
     17 C         141.8681  140.3611  166.1592 C.ar    1  UNL1        0.0176
     18 C         141.4121  140.1338  168.7068 C.ar    1  UNL1        0.0031
     19 C         142.1773  140.5909  169.9133 C.ar    1  UNL1        0.0207
     20 C         141.4430  141.0289  171.1456 C.ar    1  UNL1        0.0989
     21 N         139.9433  141.0099  171.1716 N.ar    1  UNL1       -0.2423
     22 C         139.1780  140.5528  169.9652 C.ar    1  UNL1        0.0989
     23 C         139.9125  140.1148  168.7327 C.ar    1  UNL1        0.0207
     24 O         139.2993  139.0539  160.4610 O.2     1  UNL1       -0.2700
     25 C         140.5811  139.7649  160.1426 C.2     1  UNL1        0.2504
     26 N         141.1307  139.7314  158.7473 N.am    1  UNL1       -0.3024
     27 H         141.9720  140.1981  158.5383 H       1  UNL1        0.1497
     28 C         140.3984  138.9871  157.6704 C.3     1  UNL1        0.0720
     29 C         139.4381  138.9811  156.5181 C.3     1  UNL1        0.0213
     30 C         140.0904  137.7038  156.9575 C.3     1  UNL1        0.0213
@<TRIPOS>BOND
     1    24    25    2
     2    25    26   am
     3    26    28    1
     4    28    29    1
     5    29    30    1
     6    25     1    1
     7     1     2   ar
     8     2     3   ar
     9     3    12    1
    10    12    13   ar
    11    13    14   ar
    12    14    15   ar
    13    15    16   ar
    14    16    18    1
    15    18    19   ar
    16    19    20   ar
    17    20    21   ar
    18    21    22   ar
    19    22    23   ar
    20    16    17   ar
    21     3     4   ar
    22     4     5   ar
    23     5     6   ar
    24     6     7   ar
    25     7     8   ar
    26     8     9   ar
    27     9    10   ar
    28    10    11    2
    29    30    28    1
    30    10     1   ar
    31    17    12   ar
    32     9     4   ar
    33    23    18   ar
    34    26    27    1
@<TRIPOS>MOLECULE
*****
 30 34 0 0 0
SMALL
GASTEIGER

@<TRIPOS>ATOM
      1 C         142.7926  142.6134  169.5829 C.ar    1  UNL1        0.1098
      2 C         142.9506  142.4804  168.0972 C.ar    1  UNL1        0.0891
      3 N         141.9575  141.6820  167.3058 N.ar    1  UNL1       -0.2900
      4 C         140.8064  141.0165  168.0002 C.ar    1  UNL1        0.1507
      5 N         139.8133  140.2181  167.2088 N.ar    1  UNL1       -0.2263
      6 C         138.6622  139.5527  167.9032 C.ar    1  UNL1        0.1005
      7 C         138.5042  139.6857  169.3889 C.ar    1  UNL1        0.0209
      8 C         139.4973  140.4841  170.1803 C.ar    1  UNL1        0.0078
      9 C         140.6484  141.1495  169.4859 C.ar    1  UNL1        0.0736
     10 C         141.6415  141.9480  170.2772 C.ar    1  UNL1        0.2043
     11 O         141.4835  142.0810  171.7630 O.2     1  UNL1       -0.2863
     12 C         142.1155  141.5490  165.8201 C.ar    1  UNL1        0.0654
     13 C         142.8799  140.3923  165.2477 C.ar    1  UNL1        0.0176
     14 C         143.0379  140.2593  163.7620 C.ar    1  UNL1        0.0015
     15 C         142.4315  141.2831  162.8487 C.ar    1  UNL1        0.0001
     16 C         141.6671  142.4399  163.4210 C.ar    1  UNL1        0.0015
     17 C         141.5091  142.5728  164.9068 C.ar    1  UNL1        0.0176
     18 C         141.0607  143.4636  162.5077 C.ar    1  UNL1        0.0031
     19 C         140.7350  143.1034  161.0885 C.ar    1  UNL1        0.0207
     20 C         140.1286  144.1271  160.1752 C.ar    1  UNL1        0.0989
     21 N         139.8478  145.5111  160.6810 N.ar    1  UNL1       -0.2423
     22 C         140.1735  145.8713  162.1003 C.ar    1  UNL1        0.0989
     23 C         140.7799  144.8475  163.0136 C.ar    1  UNL1        0.0207
     24 O         143.3098  144.3811  171.4154 O.2     1  UNL1       -0.2700
     25 C         143.7858  143.4118  170.3742 C.2     1  UNL1        0.2504
     26 N         145.2549  143.2410  170.1244 N.am    1  UNL1       -0.3024
     27 H         145.5673  142.6049  169.4410 H       1  UNL1        0.1497
     28 C         146.2481  144.0394  170.9157 C.3     1  UNL1        0.0720
     29 C         147.6273  144.2026  171.4825 C.3     1  UNL1        0.0213
     30 C         146.5891  145.2590  171.7195 C.3     1  UNL1        0.0213
@<TRIPOS>BOND
     1    24    25    2
     2    25    26   am
     3    26    28    1
     4    28    29    1
     5    29    30    1
     6    25     1    1
     7     1     2   ar
     8     2     3   ar
     9     3    12    1
    10    12    13   ar
    11    13    14   ar
    12    14    15   ar
    13    15    16   ar
    14    16    18    1
    15    18    19   ar
    16    19    20   ar
    17    20    21   ar
    18    21    22   ar
    19    22    23   ar
    20    16    17   ar
    21     3     4   ar
    22     4     5   ar
    23     5     6   ar
    24     6     7   ar
    25     7     8   ar
    26     8     9   ar
    27     9    10   ar
    28    10    11    2
    29    30    28    1
    30    10     1   ar
    31    17    12   ar
    32     9     4   ar
    33    23    18   ar
    34    26    27    1
@<TRIPOS>MOLECULE
*****
 30 34 0 0 0
SMALL
GASTEIGER

@<TRIPOS>ATOM
      1 C         141.3728  144.2883  160.8720 C.ar    1  UNL1        0.1098
      2 C         140.4749  144.7546  159.7646 C.ar    1  UNL1        0.0891
      3 N         140.8525  144.5001  158.3354 N.ar    1  UNL1       -0.2900
      4 C         142.1280  143.7793  158.0136 C.ar    1  UNL1        0.1507
      5 N         142.5056  143.5248  156.5844 N.ar    1  UNL1       -0.2263
      6 C         143.7811  142.8040  156.2626 C.ar    1  UNL1        0.1005
      7 C         144.6790  142.3377  157.3701 C.ar    1  UNL1        0.0209
      8 C         144.3014  142.5922  158.7992 C.ar    1  UNL1        0.0078
      9 C         143.0259  143.3130  159.1210 C.ar    1  UNL1        0.0736
     10 C         142.6482  143.5675  160.5503 C.ar    1  UNL1        0.2043
     11 O         143.5461  143.1012  161.6577 O.2     1  UNL1       -0.2863
     12 C         139.9546  144.9664  157.2280 C.ar    1  UNL1        0.0654
     13 C         139.0338  143.9957  156.5500 C.ar    1  UNL1        0.0176
     14 C         138.1359  144.4620  155.4425 C.ar    1  UNL1        0.0015
     15 C         138.1588  145.8991  155.0132 C.ar    1  UNL1        0.0001
     16 C         139.0797  146.8699  155.6912 C.ar    1  UNL1        0.0015
     17 C         139.9775  146.4035  156.7987 C.ar    1  UNL1        0.0176
     18 C         139.1026  148.3069  155.2619 C.ar    1  UNL1        0.0031
     19 C         139.7307  148.6891  153.9544 C.ar    1  UNL1        0.0207
     20 C         139.7536  150.1261  153.5251 C.ar    1  UNL1        0.0989
     21 N         139.1484  151.1810  154.4032 N.ar    1  UNL1       -0.2423
     22 C         138.5203  150.7988  155.7106 C.ar    1  UNL1        0.0989
     23 C         138.4974  149.3617  156.1400 C.ar    1  UNL1        0.0207
     24 O         141.7520  145.5558  163.1080 O.2     1  UNL1       -0.2700
     25 C         140.9951  144.5428  162.3013 C.2     1  UNL1        0.2504
     26 N         139.8605  143.7843  162.9237 N.am    1  UNL1       -0.3024
     27 H         139.3637  143.1194  162.3941 H       1  UNL1        0.1497
     28 C         139.4828  144.0388  164.3528 C.3     1  UNL1        0.0720
     29 C         138.7385  144.8443  165.3761 C.3     1  UNL1        0.0213
     30 C         139.5729  143.6740  165.8050 C.3     1  UNL1        0.0213
@<TRIPOS>BOND
     1    24    25    2
     2    25    26   am
     3    26    28    1
     4    28    29    1
     5    29    30    1
     6    25     1    1
     7     1     2   ar
     8     2     3   ar
     9     3    12    1
    10    12    13   ar
    11    13    14   ar
    12    14    15   ar
    13    15    16   ar
    14    16    18    1
    15    18    19   ar
    16    19    20   ar
    17    20    21   ar
    18    21    22   ar
    19    22    23   ar
    20    16    17   ar
    21     3     4   ar
    22     4     5   ar
    23     5     6   ar
    24     6     7   ar
    25     7     8   ar
    26     8     9   ar
    27     9    10   ar
    28    10    11    2
    29    30    28    1
    30    10     1   ar
    31    17    12   ar
    32     9     4   ar
    33    23    18   ar
    34    26    27    1
@<TRIPOS>MOLECULE
*****
 30 34 0 0 0
SMALL
GASTEIGER

@<TRIPOS>ATOM
      1 C         143.5202  142.9426  157.9230 C.ar    1  UNL1        0.1098
      2 C         142.4346  143.5044  157.0537 C.ar    1  UNL1        0.0891
      3 N         141.2771  144.2294  157.6737 N.ar    1  UNL1       -0.2900
      4 C         141.2052  144.3927  159.1631 C.ar    1  UNL1        0.1507
      5 N         140.0477  145.1177  159.7831 N.ar    1  UNL1       -0.2263
      6 C         139.9758  145.2809  161.2725 C.ar    1  UNL1        0.1005
      7 C         141.0615  144.7190  162.1418 C.ar    1  UNL1        0.0209
      8 C         142.2190  143.9940  161.5218 C.ar    1  UNL1        0.0078
      9 C         142.2908  143.8308  160.0324 C.ar    1  UNL1        0.0736
     10 C         143.4484  143.1058  159.4123 C.ar    1  UNL1        0.2043
     11 O         144.5340  142.5439  160.2816 O.2     1  UNL1       -0.2863
     12 C         140.1914  144.7913  156.8044 C.ar    1  UNL1        0.0654
     13 C         139.0791  143.9055  156.3269 C.ar    1  UNL1        0.0176
     14 C         137.9934  144.4673  155.4576 C.ar    1  UNL1        0.0015
     15 C         138.0201  145.9150  155.0658 C.ar    1  UNL1        0.0001
     16 C         139.1325  146.8009  155.5433 C.ar    1  UNL1        0.0015
     17 C         140.2181  146.2390  156.4126 C.ar    1  UNL1        0.0176
     18 C         139.1592  148.2485  155.1514 C.ar    1  UNL1        0.0031
     19 C         139.8254  148.6677  153.8745 C.ar    1  UNL1        0.0207
     20 C         139.8520  150.1154  153.4827 C.ar    1  UNL1        0.0989
     21 N         139.2125  151.1439  154.3678 N.ar    1  UNL1       -0.2423
     22 C         138.5464  150.7246  155.6447 C.ar    1  UNL1        0.0989
     23 C         138.5197  149.2769  156.0365 C.ar    1  UNL1        0.0207
     24 O         144.8034  140.7312  157.4611 O.2     1  UNL1       -0.2700
     25 C         144.6778  142.2175  157.3029 C.2     1  UNL1        0.2504
     26 N         145.7096  142.9788  156.5246 N.am    1  UNL1       -0.3024
     27 H         145.6271  143.9544  156.4208 H       1  UNL1        0.1497
     28 C         146.8671  142.2538  155.9045 C.3     1  UNL1        0.0720
     29 C         147.4007  141.2837  154.8926 C.3     1  UNL1        0.0213
     30 C         148.3383  141.9682  155.8424 C.3     1  UNL1        0.0213
@<TRIPOS>BOND
     1    24    25    2
     2    25    26   am
     3    26    28    1
     4    28    29    1
     5    29    30    1
     6    25     1    1
     7     1     2   ar
     8     2     3   ar
     9     3    12    1
    10    12    13   ar
    11    13    14   ar
    12    14    15   ar
    13    15    16   ar
    14    16    18    1
    15    18    19   ar
    16    19    20   ar
    17    20    21   ar
    18    21    22   ar
    19    22    23   ar
    20    16    17   ar
    21     3     4   ar
    22     4     5   ar
    23     5     6   ar
    24     6     7   ar
    25     7     8   ar
    26     8     9   ar
    27     9    10   ar
    28    10    11    2
    29    30    28    1
    30    10     1   ar
    31    17    12   ar
    32     9     4   ar
    33    23    18   ar
    34    26    27    1
