@<TRIPOS>MOLECULE
*****
 27 30 0 0 0
SMALL
GASTEIGER

@<TRIPOS>ATOM
      1 C         138.9439  142.3994  161.5361 C.2     1  UNL1       -0.0088
      2 C         140.3158  142.0002  161.9926 C.2     1  UNL1       -0.0032
      3 C         140.6931  142.1322  163.4384 C.ar    1  UNL1       -0.0003
      4 C         139.9494  143.0882  164.3233 C.ar    1  UNL1       -0.0000
      5 C         140.3268  143.2201  165.7691 C.ar    1  UNL1       -0.0000
      6 C         141.4477  142.3962  166.3298 C.ar    1  UNL1       -0.0000
      7 C         142.1914  141.4402  165.4449 C.ar    1  UNL1       -0.0000
      8 C         141.8140  141.3083  163.9992 C.ar    1  UNL1       -0.0000
      9 C         141.8250  142.5282  167.7757 C.ar    1  UNL1        0.0000
     10 C         143.2294  142.2357  168.2140 C.ar    1  UNL1        0.0000
     11 C         143.6066  142.3678  169.6597 C.ar    1  UNL1        0.0000
     12 C         142.5796  142.7923  170.6671 C.ar    1  UNL1        0.0000
     13 C         141.1752  143.0848  170.2288 C.ar    1  UNL1        0.0000
     14 C         140.7980  142.9527  168.7831 C.ar    1  UNL1        0.0000
     15 C         138.5665  142.2674  160.0904 C.3     1  UNL1        0.0992
     16 C         138.1415  140.6614  158.0928 C.3     1  UNL1        0.0902
     17 N         138.0683  140.9549  159.5620 N.3     1  UNL1       -0.2639
     18 C         137.4968  139.9359  160.5029 C.3     1  UNL1        0.1027
     19 C         138.4116  139.0908  161.3390 C.ar    1  UNL1        0.0344
     20 C         139.3536  138.0409  160.8289 C.ar    1  UNL1        0.1766
     21 O         140.0691  137.4486  162.0067 O.2     1  UNL1       -0.4507
     22 C         139.5693  138.1324  163.2447 C.ar    1  UNL1        0.1452
     23 C         139.9147  137.9620  164.6944 C.ar    1  UNL1        0.0375
     24 C         139.2356  138.8066  165.7314 C.ar    1  UNL1        0.0031
     25 C         138.2112  139.8216  165.3187 C.ar    1  UNL1        0.0002
     26 C         137.8658  139.9920  163.8691 C.ar    1  UNL1        0.0029
     27 C         138.5449  139.1474  162.8320 C.ar    1  UNL1        0.0349
@<TRIPOS>BOND
     1    16    17    1
     2    17    15    1
     3    15     1    1
     4     1     2    2
     5     2     3    1
     6     3     4   ar
     7     4     5   ar
     8     5     6   ar
     9     6     9    1
    10     9    10   ar
    11    10    11   ar
    12    11    12   ar
    13    12    13   ar
    14    13    14   ar
    15     6     7   ar
    16     7     8   ar
    17    17    18    1
    18    18    19    1
    19    19    20   ar
    20    20    21   ar
    21    21    22   ar
    22    22    23   ar
    23    23    24   ar
    24    24    25   ar
    25    25    26   ar
    26    26    27   ar
    27     8     3   ar
    28    27    19   ar
    29    14     9   ar
    30    27    22   ar
@<TRIPOS>MOLECULE
*****
 27 30 0 0 0
SMALL
GASTEIGER

@<TRIPOS>ATOM
      1 C         139.6840  138.6407  162.0800 C.2     1  UNL1       -0.0088
      2 C         138.9108  138.2947  163.3179 C.2     1  UNL1       -0.0032
      3 C         139.3800  138.7832  164.6563 C.ar    1  UNL1       -0.0003
      4 C         140.8394  139.0371  164.8925 C.ar    1  UNL1       -0.0000
      5 C         141.3086  139.5256  166.2310 C.ar    1  UNL1       -0.0000
      6 C         140.3184  139.7601  167.3330 C.ar    1  UNL1       -0.0000
      7 C         138.8591  139.5062  167.0967 C.ar    1  UNL1       -0.0000
      8 C         138.3899  139.0177  165.7584 C.ar    1  UNL1       -0.0000
      9 C         140.7877  140.2486  168.6714 C.ar    1  UNL1        0.0000
     10 C         139.9970  141.2875  169.4100 C.ar    1  UNL1        0.0000
     11 C         140.4663  141.7759  170.7483 C.ar    1  UNL1        0.0000
     12 C         141.7262  141.2255  171.3481 C.ar    1  UNL1        0.0000
     13 C         142.5169  140.1866  170.6095 C.ar    1  UNL1        0.0000
     14 C         142.0476  139.6982  169.2712 C.ar    1  UNL1        0.0000
     15 C         139.2148  138.1522  160.7416 C.3     1  UNL1        0.0992
     16 C         139.4646  139.0600  158.3202 C.3     1  UNL1        0.0902
     17 N         138.8296  139.1362  159.6770 N.3     1  UNL1       -0.2639
     18 C         137.8093  140.1963  159.9691 C.3     1  UNL1        0.1027
     19 C         138.2508  141.5634  160.4006 C.ar    1  UNL1        0.0344
     20 C         138.9006  142.5963  159.5283 C.ar    1  UNL1        0.1766
     21 O         139.1712  143.8089  160.3688 O.2     1  UNL1       -0.4507
     22 C         138.6887  143.5254  161.7605 C.ar    1  UNL1        0.1452
     23 C         138.6939  144.3517  163.0123 C.ar    1  UNL1        0.0375
     24 C         138.1302  143.7902  164.2839 C.ar    1  UNL1        0.0031
     25 C         137.5613  142.4024  164.3035 C.ar    1  UNL1        0.0002
     26 C         137.5561  141.5761  163.0517 C.ar    1  UNL1        0.0029
     27 C         138.1198  142.1376  161.7801 C.ar    1  UNL1        0.0349
@<TRIPOS>BOND
     1    16    17    1
     2    17    15    1
     3    15     1    1
     4     1     2    2
     5     2     3    1
     6     3     4   ar
     7     4     5   ar
     8     5     6   ar
     9     6     9    1
    10     9    10   ar
    11    10    11   ar
    12    11    12   ar
    13    12    13   ar
    14    13    14   ar
    15     6     7   ar
    16     7     8   ar
    17    17    18    1
    18    18    19    1
    19    19    20   ar
    20    20    21   ar
    21    21    22   ar
    22    22    23   ar
    23    23    24   ar
    24    24    25   ar
    25    25    26   ar
    26    26    27   ar
    27     8     3   ar
    28    27    19   ar
    29    14     9   ar
    30    27    22   ar
@<TRIPOS>MOLECULE
*****
 27 30 0 0 0
SMALL
GASTEIGER

@<TRIPOS>ATOM
      1 C         143.2204  143.1721  161.8738 C.2     1  UNL1       -0.0088
      2 C         142.4895  142.0154  162.4886 C.2     1  UNL1       -0.0032
      3 C         142.2460  141.9832  163.9683 C.ar    1  UNL1       -0.0003
      4 C         140.9074  141.5631  164.4991 C.ar    1  UNL1       -0.0000
      5 C         140.6639  141.5309  165.9789 C.ar    1  UNL1       -0.0000
      6 C         141.7589  141.9189  166.9277 C.ar    1  UNL1       -0.0000
      7 C         143.0974  142.3390  166.3969 C.ar    1  UNL1       -0.0000
      8 C         143.3409  142.3712  164.9172 C.ar    1  UNL1       -0.0000
      9 C         141.5153  141.8867  168.4075 C.ar    1  UNL1        0.0000
     10 C         140.4252  142.7250  169.0066 C.ar    1  UNL1        0.0000
     11 C         140.1817  142.6928  170.4863 C.ar    1  UNL1        0.0000
     12 C         141.0282  141.8223  171.3670 C.ar    1  UNL1        0.0000
     13 C         142.1183  140.9839  170.7679 C.ar    1  UNL1        0.0000
     14 C         142.3618  141.0162  169.2882 C.ar    1  UNL1        0.0000
     15 C         143.4641  143.2044  160.3941 C.3     1  UNL1        0.0992
     16 C         142.6955  143.8862  158.0078 C.3     1  UNL1        0.0902
     17 N         142.5321  143.9636  159.4969 N.3     1  UNL1       -0.2639
     18 C         141.4366  144.8002  160.0887 C.3     1  UNL1        0.1027
     19 C         140.1901  144.1462  160.6068 C.ar    1  UNL1        0.0344
     20 C         139.2603  143.2719  159.8187 C.ar    1  UNL1        0.1766
     21 O         138.1500  142.8371  160.7288 O.2     1  UNL1       -0.4507
     22 C         138.3936  143.4427  162.0793 C.ar    1  UNL1        0.1452
     23 C         137.6303  143.3618  163.3680 C.ar    1  UNL1        0.0375
     24 C         138.1278  144.0901  164.5813 C.ar    1  UNL1        0.0031
     25 C         139.3886  144.8992  164.5059 C.ar    1  UNL1        0.0002
     26 C         140.1520  144.9800  163.2172 C.ar    1  UNL1        0.0029
     27 C         139.6545  144.2517  162.0040 C.ar    1  UNL1        0.0349
@<TRIPOS>BOND
     1    16    17    1
     2    17    15    1
     3    15     1    1
     4     1     2    2
     5     2     3    1
     6     3     4   ar
     7     4     5   ar
     8     5     6   ar
     9     6     9    1
    10     9    10   ar
    11    10    11   ar
    12    11    12   ar
    13    12    13   ar
    14    13    14   ar
    15     6     7   ar
    16     7     8   ar
    17    17    18    1
    18    18    19    1
    19    19    20   ar
    20    20    21   ar
    21    21    22   ar
    22    22    23   ar
    23    23    24   ar
    24    24    25   ar
    25    25    26   ar
    26    26    27   ar
    27     8     3   ar
    28    27    19   ar
    29    14     9   ar
    30    27    22   ar
@<TRIPOS>MOLECULE
*****
 27 30 0 0 0
SMALL
GASTEIGER

@<TRIPOS>ATOM
      1 C         142.8829  141.8129  161.4688 C.2     1  UNL1       -0.0088
      2 C         141.4942  141.5594  161.9759 C.2     1  UNL1       -0.0032
      3 C         141.2012  141.6626  163.4434 C.ar    1  UNL1       -0.0003
      4 C         142.1163  142.4454  164.3377 C.ar    1  UNL1       -0.0000
      5 C         141.8232  142.5485  165.8052 C.ar    1  UNL1       -0.0000
      6 C         140.6151  141.8689  166.3783 C.ar    1  UNL1       -0.0000
      7 C         139.7000  141.0861  165.4840 C.ar    1  UNL1       -0.0000
      8 C         139.9931  140.9829  164.0166 C.ar    1  UNL1       -0.0000
      9 C         140.3221  141.9721  167.8458 C.ar    1  UNL1        0.0000
     10 C         139.7977  140.7809  168.5915 C.ar    1  UNL1        0.0000
     11 C         139.5047  140.8841  170.0590 C.ar    1  UNL1        0.0000
     12 C         139.7361  142.1785  170.7807 C.ar    1  UNL1        0.0000
     13 C         140.2604  143.3697  170.0351 C.ar    1  UNL1        0.0000
     14 C         140.5534  143.2665  168.5676 C.ar    1  UNL1        0.0000
     15 C         143.1760  141.7097  160.0013 C.3     1  UNL1        0.0992
     16 C         143.7101  140.2282  157.9350 C.3     1  UNL1        0.0902
     17 N         143.6611  140.4137  159.4227 N.3     1  UNL1       -0.2639
     18 C         144.0972  139.3030  160.3317 C.3     1  UNL1        0.1027
     19 C         143.0985  138.6295  161.2256 C.ar    1  UNL1        0.0344
     20 C         141.9050  137.8396  160.7765 C.ar    1  UNL1        0.1766
     21 O         141.1869  137.3497  161.9989 O.2     1  UNL1       -0.4507
     22 C         141.9365  137.8367  163.2034 C.ar    1  UNL1        0.1452
     23 C         141.6960  137.6622  164.6736 C.ar    1  UNL1        0.0375
     24 C         142.6369  138.2786  165.6659 C.ar    1  UNL1        0.0031
     25 C         143.8183  139.0696  165.1880 C.ar    1  UNL1        0.0002
     26 C         144.0589  139.2442  163.7177 C.ar    1  UNL1        0.0029
     27 C         143.1180  138.6277  162.7255 C.ar    1  UNL1        0.0349
@<TRIPOS>BOND
     1    16    17    1
     2    17    15    1
     3    15     1    1
     4     1     2    2
     5     2     3    1
     6     3     4   ar
     7     4     5   ar
     8     5     6   ar
     9     6     9    1
    10     9    10   ar
    11    10    11   ar
    12    11    12   ar
    13    12    13   ar
    14    13    14   ar
    15     6     7   ar
    16     7     8   ar
    17    17    18    1
    18    18    19    1
    19    19    20   ar
    20    20    21   ar
    21    21    22   ar
    22    22    23   ar
    23    23    24   ar
    24    24    25   ar
    25    25    26   ar
    26    26    27   ar
    27     8     3   ar
    28    27    19   ar
    29    14     9   ar
    30    27    22   ar
@<TRIPOS>MOLECULE
*****
 27 30 0 0 0
SMALL
GASTEIGER

@<TRIPOS>ATOM
      1 C         141.7935  139.4185  161.6976 C.2     1  UNL1       -0.0088
      2 C         142.3768  138.6334  162.8349 C.2     1  UNL1       -0.0032
      3 C         142.3551  139.1975  164.2246 C.ar    1  UNL1       -0.0003
      4 C         142.8596  138.3775  165.3749 C.ar    1  UNL1       -0.0000
      5 C         142.8379  138.9417  166.7646 C.ar    1  UNL1       -0.0000
      6 C         142.3117  140.3258  167.0040 C.ar    1  UNL1       -0.0000
      7 C         141.8073  141.1458  165.8537 C.ar    1  UNL1       -0.0000
      8 C         141.8290  140.5817  164.4640 C.ar    1  UNL1       -0.0000
      9 C         142.2900  140.8900  168.3937 C.ar    1  UNL1        0.0000
     10 C         143.0218  142.1636  168.6977 C.ar    1  UNL1        0.0000
     11 C         143.0001  142.7277  170.0874 C.ar    1  UNL1        0.0000
     12 C         142.2466  142.0182  171.1731 C.ar    1  UNL1        0.0000
     13 C         141.5148  140.7445  170.8692 C.ar    1  UNL1        0.0000
     14 C         141.5366  140.1805  169.4795 C.ar    1  UNL1        0.0000
     15 C         141.8152  138.8545  160.3079 C.3     1  UNL1        0.0992
     16 C         140.4710  138.5642  158.1036 C.3     1  UNL1        0.0902
     17 N         140.5273  138.5485  159.6025 N.3     1  UNL1       -0.2639
     18 C         139.2955  138.2268  160.3959 C.3     1  UNL1        0.1027
     19 C         138.8011  139.1879  161.4361 C.ar    1  UNL1        0.0344
     20 C         138.2825  140.5722  161.1819 C.ar    1  UNL1        0.1766
     21 O         137.8994  141.1732  162.5017 O.2     1  UNL1       -0.4507
     22 C         138.1813  140.1604  163.5716 C.ar    1  UNL1        0.1452
     23 C         138.0025  140.1969  165.0604 C.ar    1  UNL1        0.0375
     24 C         138.3810  139.0064  165.8906 C.ar    1  UNL1        0.0031
     25 C         138.9383  137.7793  165.2320 C.ar    1  UNL1        0.0002
     26 C         139.1171  137.7428  163.7432 C.ar    1  UNL1        0.0029
     27 C         138.7386  138.9333  162.9130 C.ar    1  UNL1        0.0349
@<TRIPOS>BOND
     1    16    17    1
     2    17    15    1
     3    15     1    1
     4     1     2    2
     5     2     3    1
     6     3     4   ar
     7     4     5   ar
     8     5     6   ar
     9     6     9    1
    10     9    10   ar
    11    10    11   ar
    12    11    12   ar
    13    12    13   ar
    14    13    14   ar
    15     6     7   ar
    16     7     8   ar
    17    17    18    1
    18    18    19    1
    19    19    20   ar
    20    20    21   ar
    21    21    22   ar
    22    22    23   ar
    23    23    24   ar
    24    24    25   ar
    25    25    26   ar
    26    26    27   ar
    27     8     3   ar
    28    27    19   ar
    29    14     9   ar
    30    27    22   ar
@<TRIPOS>MOLECULE
*****
 27 30 0 0 0
SMALL
GASTEIGER

@<TRIPOS>ATOM
      1 C         139.1677  142.0237  161.1562 C.2     1  UNL1       -0.0088
      2 C         138.3788  142.1656  162.4241 C.2     1  UNL1       -0.0032
      3 C         139.0891  142.2842  163.7399 C.ar    1  UNL1       -0.0003
      4 C         139.9070  141.1380  164.2568 C.ar    1  UNL1       -0.0000
      5 C         140.6172  141.2567  165.5727 C.ar    1  UNL1       -0.0000
      6 C         140.5095  142.5216  166.3716 C.ar    1  UNL1       -0.0000
      7 C         139.6915  143.6678  165.8548 C.ar    1  UNL1       -0.0000
      8 C         138.9814  143.5491  164.5390 C.ar    1  UNL1       -0.0000
      9 C         141.2198  142.6402  167.6876 C.ar    1  UNL1        0.0000
     10 C         140.4830  143.1390  168.8952 C.ar    1  UNL1        0.0000
     11 C         141.1933  143.2576  170.2110 C.ar    1  UNL1        0.0000
     12 C         142.6403  142.8775  170.3192 C.ar    1  UNL1        0.0000
     13 C         143.3770  142.3788  169.1116 C.ar    1  UNL1        0.0000
     14 C         142.6668  142.2602  167.7958 C.ar    1  UNL1        0.0000
     15 C         138.4575  141.9051  159.8403 C.3     1  UNL1        0.0992
     16 C         138.6839  140.6590  157.5718 C.3     1  UNL1        0.0902
     17 N         138.5272  140.6240  159.0632 N.3     1  UNL1       -0.2639
     18 C         138.4400  139.3078  159.7776 C.3     1  UNL1        0.1027
     19 C         139.6383  138.7648  160.4982 C.ar    1  UNL1        0.0344
     20 C         141.0150  138.6054  159.9242 C.ar    1  UNL1        0.1766
     21 O         141.8977  138.0280  160.9907 O.2     1  UNL1       -0.4507
     22 C         141.0667  137.8306  162.2237 C.ar    1  UNL1        0.1452
     23 C         141.4012  137.2950  163.5843 C.ar    1  UNL1        0.0375
     24 C         140.3392  137.2149  164.6406 C.ar    1  UNL1        0.0031
     25 C         138.9427  137.6703  164.3362 C.ar    1  UNL1        0.0002
     26 C         138.6083  138.2058  162.9756 C.ar    1  UNL1        0.0029
     27 C         139.6703  138.2860  161.9194 C.ar    1  UNL1        0.0349
@<TRIPOS>BOND
     1    16    17    1
     2    17    15    1
     3    15     1    1
     4     1     2    2
     5     2     3    1
     6     3     4   ar
     7     4     5   ar
     8     5     6   ar
     9     6     9    1
    10     9    10   ar
    11    10    11   ar
    12    11    12   ar
    13    12    13   ar
    14    13    14   ar
    15     6     7   ar
    16     7     8   ar
    17    17    18    1
    18    18    19    1
    19    19    20   ar
    20    20    21   ar
    21    21    22   ar
    22    22    23   ar
    23    23    24   ar
    24    24    25   ar
    25    25    26   ar
    26    26    27   ar
    27     8     3   ar
    28    27    19   ar
    29    14     9   ar
    30    27    22   ar
@<TRIPOS>MOLECULE
*****
 27 30 0 0 0
SMALL
GASTEIGER

@<TRIPOS>ATOM
      1 C         143.8320  140.0689  162.0321 C.2     1  UNL1       -0.0088
      2 C         144.4195  139.5904  163.3266 C.2     1  UNL1       -0.0032
      3 C         143.8053  140.0096  164.6293 C.ar    1  UNL1       -0.0003
      4 C         143.5304  141.4598  164.8966 C.ar    1  UNL1       -0.0000
      5 C         142.9162  141.8789  166.1994 C.ar    1  UNL1       -0.0000
      6 C         142.5769  140.8479  167.2347 C.ar    1  UNL1       -0.0000
      7 C         142.8518  139.3978  166.9673 C.ar    1  UNL1       -0.0000
      8 C         143.4660  138.9787  165.6646 C.ar    1  UNL1       -0.0000
      9 C         141.9626  141.2671  168.5374 C.ar    1  UNL1        0.0000
     10 C         142.3179  140.5423  169.8017 C.ar    1  UNL1        0.0000
     11 C         141.7036  140.9615  171.1044 C.ar    1  UNL1        0.0000
     12 C         140.7342  142.1055  171.1428 C.ar    1  UNL1        0.0000
     13 C         140.3790  142.8304  169.8785 C.ar    1  UNL1        0.0000
     14 C         140.9933  142.4112  168.5758 C.ar    1  UNL1        0.0000
     15 C         144.4461  139.6498  160.7293 C.3     1  UNL1        0.0992
     16 C         143.6069  139.9117  158.2845 C.3     1  UNL1        0.0902
     17 N         143.5709  139.1923  159.6003 N.3     1  UNL1       -0.2639
     18 C         142.6597  138.0155  159.7870 C.3     1  UNL1        0.1027
     19 C         141.2471  138.2260  160.2456 C.ar    1  UNL1        0.0344
     20 C         140.1092  138.7155  159.3996 C.ar    1  UNL1        0.1766
     21 O         138.8833  138.7761  160.2618 O.2     1  UNL1       -0.4507
     22 C         139.2634  138.3239  161.6406 C.ar    1  UNL1        0.1452
     23 C         138.4681  138.1779  162.9039 C.ar    1  UNL1        0.0375
     24 C         139.1336  137.6918  164.1572 C.ar    1  UNL1        0.0031
     25 C         140.5946  137.3519  164.1471 C.ar    1  UNL1        0.0002
     26 C         141.3899  137.4980  162.8838 C.ar    1  UNL1        0.0029
     27 C         140.7244  137.9840  161.6306 C.ar    1  UNL1        0.0349
@<TRIPOS>BOND
     1    16    17    1
     2    17    15    1
     3    15     1    1
     4     1     2    2
     5     2     3    1
     6     3     4   ar
     7     4     5   ar
     8     5     6   ar
     9     6     9    1
    10     9    10   ar
    11    10    11   ar
    12    11    12   ar
    13    12    13   ar
    14    13    14   ar
    15     6     7   ar
    16     7     8   ar
    17    17    18    1
    18    18    19    1
    19    19    20   ar
    20    20    21   ar
    21    21    22   ar
    22    22    23   ar
    23    23    24   ar
    24    24    25   ar
    25    25    26   ar
    26    26    27   ar
    27     8     3   ar
    28    27    19   ar
    29    14     9   ar
    30    27    22   ar
@<TRIPOS>MOLECULE
*****
 27 30 0 0 0
SMALL
GASTEIGER

@<TRIPOS>ATOM
      1 C         143.6214  139.8518  161.9086 C.2     1  UNL1       -0.0088
      2 C         142.1673  140.0577  162.2137 C.2     1  UNL1       -0.0032
      3 C         141.7372  140.4257  163.6028 C.ar    1  UNL1       -0.0003
      4 C         140.8832  141.6384  163.8270 C.ar    1  UNL1       -0.0000
      5 C         140.4532  142.0063  165.2163 C.ar    1  UNL1       -0.0000
      6 C         140.8772  141.1616  166.3810 C.ar    1  UNL1       -0.0000
      7 C         141.7311  139.9490  166.1567 C.ar    1  UNL1       -0.0000
      8 C         142.1611  139.5811  164.7676 C.ar    1  UNL1       -0.0000
      9 C         140.4471  141.5296  167.7702 C.ar    1  UNL1        0.0000
     10 C         139.7183  140.5305  168.6191 C.ar    1  UNL1        0.0000
     11 C         139.2883  140.8985  170.0082 C.ar    1  UNL1        0.0000
     12 C         139.5870  142.2656  170.5484 C.ar    1  UNL1        0.0000
     13 C         140.3158  143.2648  169.6995 C.ar    1  UNL1        0.0000
     14 C         140.7458  142.8967  168.3104 C.ar    1  UNL1        0.0000
     15 C         144.0515  139.4839  160.5195 C.3     1  UNL1        0.0992
     16 C         143.2895  139.9572  158.0812 C.3     1  UNL1        0.0902
     17 N         143.8386  140.4461  159.3887 N.3     1  UNL1       -0.2639
     18 C         144.1748  141.8973  159.5654 C.3     1  UNL1        0.1027
     19 C         143.1279  142.8561  160.0500 C.ar    1  UNL1        0.0344
     20 C         141.9360  143.3277  159.2711 C.ar    1  UNL1        0.1766
     21 O         141.1606  144.2746  160.1384 O.2     1  UNL1       -0.4507
     22 C         141.8734  144.3882  161.4533 C.ar    1  UNL1        0.1452
     23 C         141.5724  145.1767  162.6933 C.ar    1  UNL1        0.0375
     24 C         142.4873  145.0885  163.8787 C.ar    1  UNL1        0.0031
     25 C         143.7031  144.2118  163.8241 C.ar    1  UNL1        0.0002
     26 C         144.0042  143.4233  162.5841 C.ar    1  UNL1        0.0029
     27 C         143.0893  143.5115  161.3987 C.ar    1  UNL1        0.0349
@<TRIPOS>BOND
     1    16    17    1
     2    17    15    1
     3    15     1    1
     4     1     2    2
     5     2     3    1
     6     3     4   ar
     7     4     5   ar
     8     5     6   ar
     9     6     9    1
    10     9    10   ar
    11    10    11   ar
    12    11    12   ar
    13    12    13   ar
    14    13    14   ar
    15     6     7   ar
    16     7     8   ar
    17    17    18    1
    18    18    19    1
    19    19    20   ar
    20    20    21   ar
    21    21    22   ar
    22    22    23   ar
    23    23    24   ar
    24    24    25   ar
    25    25    26   ar
    26    26    27   ar
    27     8     3   ar
    28    27    19   ar
    29    14     9   ar
    30    27    22   ar
@<TRIPOS>MOLECULE
*****
 27 30 0 0 0
SMALL
GASTEIGER

@<TRIPOS>ATOM
      1 C         140.2400  138.7015  161.2999 C.2     1  UNL1       -0.0088
      2 C         140.1974  140.1375  161.7311 C.2     1  UNL1       -0.0032
      3 C         140.1699  140.4818  163.1908 C.ar    1  UNL1       -0.0003
      4 C         141.2488  141.3421  163.7789 C.ar    1  UNL1       -0.0000
      5 C         141.2212  141.6863  165.2387 C.ar    1  UNL1       -0.0000
      6 C         140.1147  141.1703  166.1101 C.ar    1  UNL1       -0.0000
      7 C         139.0358  140.3100  165.5219 C.ar    1  UNL1       -0.0000
      8 C         139.0635  139.9658  164.0623 C.ar    1  UNL1       -0.0000
      9 C         140.0872  141.5146  167.5699 C.ar    1  UNL1        0.0000
     10 C         140.5710  142.8568  168.0332 C.ar    1  UNL1        0.0000
     11 C         140.5434  143.2010  169.4928 C.ar    1  UNL1        0.0000
     12 C         140.0321  142.2031  170.4892 C.ar    1  UNL1        0.0000
     13 C         139.5483  140.8610  170.0260 C.ar    1  UNL1        0.0000
     14 C         139.5759  140.5168  168.5663 C.ar    1  UNL1        0.0000
     15 C         140.2675  138.3571  159.8403 C.3     1  UNL1        0.0992
     16 C         141.2064  139.3082  157.6123 C.3     1  UNL1        0.0902
     17 N         141.4348  138.7706  158.9939 N.3     1  UNL1       -0.2639
     18 C         142.8307  138.6466  159.5292 C.3     1  UNL1        0.1027
     19 C         143.5167  139.8429  160.1193 C.ar    1  UNL1        0.0344
     20 C         143.8294  141.1228  159.4022 C.ar    1  UNL1        0.1766
     21 O         144.5164  142.0402  160.3699 O.2     1  UNL1       -0.4507
     22 C         144.6283  141.3274  161.6849 C.ar    1  UNL1        0.1452
     23 C         145.2130  141.7395  163.0034 C.ar    1  UNL1        0.0375
     24 C         145.1797  140.7935  164.1670 C.ar    1  UNL1        0.0031
     25 C         144.5619  139.4355  164.0121 C.ar    1  UNL1        0.0002
     26 C         143.9772  139.0234  162.6937 C.ar    1  UNL1        0.0029
     27 C         144.0104  139.9694  161.5301 C.ar    1  UNL1        0.0349
@<TRIPOS>BOND
     1    16    17    1
     2    17    15    1
     3    15     1    1
     4     1     2    2
     5     2     3    1
     6     3     4   ar
     7     4     5   ar
     8     5     6   ar
     9     6     9    1
    10     9    10   ar
    11    10    11   ar
    12    11    12   ar
    13    12    13   ar
    14    13    14   ar
    15     6     7   ar
    16     7     8   ar
    17    17    18    1
    18    18    19    1
    19    19    20   ar
    20    20    21   ar
    21    21    22   ar
    22    22    23   ar
    23    23    24   ar
    24    24    25   ar
    25    25    26   ar
    26    26    27   ar
    27     8     3   ar
    28    27    19   ar
    29    14     9   ar
    30    27    22   ar
