@<TRIPOS>MOLECULE
*****
 33 38 0 0 0
SMALL
GASTEIGER

@<TRIPOS>ATOM
      1 C         142.5548  136.7266  157.7446 C.3     1  UNL1        0.1161
      2 C         143.2737  135.4262  157.5395 C.3     1  UNL1        0.0510
      3 C         142.9245  134.5522  156.3716 C.2     1  UNL1       -0.0044
      4 C         141.8563  134.9787  155.4087 C.2     1  UNL1        0.0689
      5 N         141.7292  133.9165  154.3572 N.2     1  UNL1       -0.2526
      6 C         142.7188  132.8336  154.6702 C.2     1  UNL1        0.0627
      7 C         143.0427  131.5405  153.9825 C.3     1  UNL1        0.0717
      8 C         144.1053  130.6404  154.5397 C.2     1  UNL1       -0.0198
      9 C         144.8441  131.0333  155.7847 C.2     1  UNL1       -0.0042
     10 C         144.5202  132.3263  156.4724 C.2     1  UNL1        0.0006
     11 C         143.4576  133.2265  155.9152 C.2     1  UNL1        0.0111
     12 C         141.1374  136.2791  155.6138 C.3     1  UNL1        0.0949
     13 N         141.4866  137.1531  156.7818 N.3     1  UNL1       -0.2887
     14 H         140.6318  137.2741  157.3250 H       1  UNL1        0.1239
     15 C         143.1918  138.4170  161.1801 C.ar    1  UNL1        0.0769
     16 C         143.6913  139.4738  160.2400 C.ar    1  UNL1        0.1171
     17 N         143.5135  138.9692  158.8387 N.ar    1  UNL1       -0.2282
     18 C         142.9041  137.6006  158.9127 C.ar    1  UNL1        0.1318
     19 N         142.7053  137.2593  160.3597 N.ar    1  UNL1       -0.3397
     20 H         142.3227  136.4224  160.7096 H       1  UNL1        0.1671
     21 CL        143.1477  138.7604  167.1701 Cl      1  UNL1       -0.0822
     22 C         143.1588  138.6746  165.6726 C.ar    1  UNL1        0.0577
     23 C         144.3087  139.2457  164.8971 C.ar    1  UNL1        0.0114
     24 C         144.3197  139.1598  163.3996 C.ar    1  UNL1        0.0023
     25 C         143.1808  138.5029  162.6776 C.ar    1  UNL1        0.0172
     26 C         142.0308  137.9318  163.4531 C.ar    1  UNL1        0.0023
     27 C         142.0198  138.0177  164.9506 C.ar    1  UNL1        0.0114
     28 C         140.0692  136.7056  154.6509 C.3     1  UNL1        0.0252
     29 C         138.7337  137.1563  155.1638 C.3     1  UNL1        0.0339
     30 C         137.6655  137.5828  154.2008 C.3     1  UNL1        0.1422
     31 O         137.9329  137.5585  152.7251 O.3     1  UNL1       -0.3538
     32 C         139.2685  137.1077  152.2122 C.3     1  UNL1        0.1422
     33 C         140.3366  136.6812  153.1751 C.3     1  UNL1        0.0339
@<TRIPOS>BOND
     1    21    22    1
     2    22    23   ar
     3    23    24   ar
     4    24    25   ar
     5    25    15    1
     6    15    16   ar
     7    16    17   ar
     8    17    18   ar
     9     1    18    1
    10     1     2    1
    11     2     3    1
    12     3     4    2
    13     4     5    1
    14     5     6    2
    15     6     7    1
    16     7     8    1
    17     8     9    2
    18     9    10    1
    19    10    11    2
    20     4    12    1
    21    12    28    1
    22    28    29    1
    23    29    30    1
    24    30    31    1
    25    31    32    1
    26    32    33    1
    27    12    13    1
    28    18    19   ar
    29    25    26   ar
    30    26    27   ar
    31    27    22   ar
    32    19    15   ar
    33    13     1    1
    34    11     3    1
    35    33    28    1
    36    11     6    1
    37    13    14    1
    38    19    20    1
@<TRIPOS>MOLECULE
*****
 33 38 0 0 0
SMALL
GASTEIGER

@<TRIPOS>ATOM
      1 C         143.2075  142.9615  157.4457 C.3     1  UNL1        0.1161
      2 C         143.2624  143.2412  158.9184 C.3     1  UNL1        0.0510
      3 C         142.0966  143.8918  159.6022 C.2     1  UNL1       -0.0044
      4 C         140.8759  144.2627  158.8134 C.2     1  UNL1        0.0689
      5 N         139.8888  144.8881  159.7538 N.2     1  UNL1       -0.2526
      6 C         140.4994  144.9037  161.1238 C.2     1  UNL1        0.0627
      7 C         139.9891  145.3991  162.4445 C.3     1  UNL1        0.0717
      8 C         140.8434  145.2787  163.6715 C.2     1  UNL1       -0.0198
      9 C         142.2080  144.6629  163.5778 C.2     1  UNL1       -0.0042
     10 C         142.7182  144.1676  162.2571 C.2     1  UNL1        0.0006
     11 C         141.8639  144.2880  161.0301 C.2     1  UNL1        0.0111
     12 C         140.8210  143.9830  157.3407 C.3     1  UNL1        0.0949
     13 N         141.9868  143.3324  156.6569 N.3     1  UNL1       -0.2887
     14 H         142.2930  143.9724  155.9241 H       1  UNL1        0.1239
     15 C         146.4928  141.9803  155.6264 C.ar    1  UNL1        0.0769
     16 C         145.8419  140.6392  155.7928 C.ar    1  UNL1        0.1171
     17 N         144.5320  140.8435  156.4945 N.ar    1  UNL1       -0.2282
     18 C         144.3733  142.3109  156.7619 C.ar    1  UNL1        0.1318
     19 N         145.5851  143.0135  156.2254 N.ar    1  UNL1       -0.3397
     20 H         145.7549  143.9826  156.2603 H       1  UNL1        0.1671
     21 CL        151.7957  143.0285  153.0225 Cl      1  UNL1       -0.0822
     22 C         150.4699  142.7665  153.6735 C.ar    1  UNL1        0.0577
     23 C         149.2316  143.4288  153.1464 C.ar    1  UNL1        0.0114
     24 C         147.9060  143.1668  153.7974 C.ar    1  UNL1        0.0023
     25 C         147.8186  142.2424  154.9755 C.ar    1  UNL1        0.0172
     26 C         149.0568  141.5800  155.5025 C.ar    1  UNL1        0.0023
     27 C         150.3825  141.8420  154.8515 C.ar    1  UNL1        0.0114
     28 C         139.6003  144.3539  156.5519 C.3     1  UNL1        0.0252
     29 C         138.4908  143.3601  156.3755 C.3     1  UNL1        0.0339
     30 C         137.2700  143.7311  155.5866 C.3     1  UNL1        0.1422
     31 O         137.1589  145.0958  154.9741 O.3     1  UNL1       -0.3538
     32 C         138.2685  146.0897  155.1505 C.3     1  UNL1        0.1422
     33 C         139.4891  145.7187  155.9394 C.3     1  UNL1        0.0339
@<TRIPOS>BOND
     1    21    22    1
     2    22    23   ar
     3    23    24   ar
     4    24    25   ar
     5    25    15    1
     6    15    16   ar
     7    16    17   ar
     8    17    18   ar
     9     1    18    1
    10     1     2    1
    11     2     3    1
    12     3     4    2
    13     4     5    1
    14     5     6    2
    15     6     7    1
    16     7     8    1
    17     8     9    2
    18     9    10    1
    19    10    11    2
    20     4    12    1
    21    12    28    1
    22    28    29    1
    23    29    30    1
    24    30    31    1
    25    31    32    1
    26    32    33    1
    27    12    13    1
    28    18    19   ar
    29    25    26   ar
    30    26    27   ar
    31    27    22   ar
    32    19    15   ar
    33    13     1    1
    34    11     3    1
    35    33    28    1
    36    11     6    1
    37    13    14    1
    38    19    20    1
@<TRIPOS>MOLECULE
*****
 33 38 0 0 0
SMALL
GASTEIGER

@<TRIPOS>ATOM
      1 C         139.4452  139.6276  157.4768 C.3     1  UNL1        0.1161
      2 C         139.1406  139.5343  158.9426 C.3     1  UNL1        0.0510
      3 C         138.7587  140.7658  159.7091 C.2     1  UNL1       -0.0044
      4 C         138.6814  142.0905  159.0098 C.2     1  UNL1        0.0689
      5 N         138.2806  143.1249  160.0195 N.2     1  UNL1       -0.2526
      6 C         138.1102  142.4394  161.3428 C.2     1  UNL1        0.0627
      7 C         137.7241  142.9545  162.6976 C.3     1  UNL1        0.0717
      8 C         137.6335  142.0115  163.8606 C.2     1  UNL1       -0.0198
      9 C         137.9290  140.5535  163.6688 C.2     1  UNL1       -0.0042
     10 C         138.3151  140.0384  162.3139 C.2     1  UNL1        0.0006
     11 C         138.4057  140.9813  161.1510 C.2     1  UNL1        0.0111
     12 C         138.9860  142.1838  157.5440 C.3     1  UNL1        0.0949
     13 N         139.3679  140.9523  156.7775 N.3     1  UNL1       -0.2887
     14 H         140.2895  141.1284  156.3776 H       1  UNL1        0.1239
     15 C         140.9650  136.3657  156.0221 C.ar    1  UNL1        0.0769
     16 C         139.8644  136.6360  155.0395 C.ar    1  UNL1        0.1171
     17 N         139.1611  137.8908  155.4647 N.ar    1  UNL1       -0.2282
     18 C         139.8270  138.3960  156.7102 C.ar    1  UNL1        0.1318
     19 N         140.9419  137.4535  157.0548 N.ar    1  UNL1       -0.3397
     20 H         141.5514  137.5345  157.8236 H       1  UNL1        0.1671
     21 CL        144.7886  131.7449  155.8524 Cl      1  UNL1       -0.0822
     22 C         143.8327  132.9002  155.8948 C.ar    1  UNL1        0.0577
     23 C         143.9770  133.9545  156.9519 C.ar    1  UNL1        0.0114
     24 C         143.0211  135.1097  156.9943 C.ar    1  UNL1        0.0023
     25 C         141.9209  135.2105  155.9797 C.ar    1  UNL1        0.0172
     26 C         141.7767  134.1561  154.9226 C.ar    1  UNL1        0.0023
     27 C         142.7326  133.0010  154.8802 C.ar    1  UNL1        0.0114
     28 C         138.9087  143.5086  156.8447 C.3     1  UNL1        0.0252
     29 C         137.8690  143.7396  155.7886 C.3     1  UNL1        0.0339
     30 C         137.7918  145.0645  155.0893 C.3     1  UNL1        0.1422
     31 O         138.7542  146.1582  155.4462 O.3     1  UNL1       -0.3538
     32 C         139.7940  145.9271  156.5024 C.3     1  UNL1        0.1422
     33 C         139.8712  144.6024  157.2017 C.3     1  UNL1        0.0339
@<TRIPOS>BOND
     1    21    22    1
     2    22    23   ar
     3    23    24   ar
     4    24    25   ar
     5    25    15    1
     6    15    16   ar
     7    16    17   ar
     8    17    18   ar
     9     1    18    1
    10     1     2    1
    11     2     3    1
    12     3     4    2
    13     4     5    1
    14     5     6    2
    15     6     7    1
    16     7     8    1
    17     8     9    2
    18     9    10    1
    19    10    11    2
    20     4    12    1
    21    12    28    1
    22    28    29    1
    23    29    30    1
    24    30    31    1
    25    31    32    1
    26    32    33    1
    27    12    13    1
    28    18    19   ar
    29    25    26   ar
    30    26    27   ar
    31    27    22   ar
    32    19    15   ar
    33    13     1    1
    34    11     3    1
    35    33    28    1
    36    11     6    1
    37    13    14    1
    38    19    20    1
@<TRIPOS>MOLECULE
*****
 33 38 0 0 0
SMALL
GASTEIGER

@<TRIPOS>ATOM
      1 C         142.1478  140.0279  160.5521 C.3     1  UNL1        0.1161
      2 C         142.5982  139.3763  161.8259 C.3     1  UNL1        0.0510
      3 C         142.2652  140.0029  163.1474 C.2     1  UNL1       -0.0044
      4 C         141.4817  141.2812  163.1951 C.2     1  UNL1        0.0689
      5 N         141.3041  141.6625  164.6349 N.2     1  UNL1       -0.2526
      6 C         141.9778  140.6199  165.4771 C.2     1  UNL1        0.0627
      7 C         142.1270  140.4720  166.9623 C.3     1  UNL1        0.0717
      8 C         142.8703  139.2984  167.5281 C.2     1  UNL1       -0.0198
      9 C         143.4642  138.2727  166.6088 C.2     1  UNL1       -0.0042
     10 C         143.3150  138.4206  165.1236 C.2     1  UNL1        0.0006
     11 C         142.5717  139.5942  164.5578 C.2     1  UNL1        0.0111
     12 C         141.0313  141.9328  161.9213 C.3     1  UNL1        0.0949
     13 N         141.3643  141.3062  160.5998 N.3     1  UNL1       -0.2887
     14 H         141.8967  141.9977  160.0718 H       1  UNL1        0.1239
     15 C         142.8265  137.7607  157.4757 C.ar    1  UNL1        0.0769
     16 C         143.1600  139.1128  156.9185 C.ar    1  UNL1        0.1171
     17 N         142.9464  140.1267  158.0031 N.ar    1  UNL1       -0.2282
     18 C         142.4808  139.4012  159.2306 C.ar    1  UNL1        0.1318
     19 N         142.4067  137.9389  158.9047 N.ar    1  UNL1       -0.3397
     20 H         142.1309  137.2220  159.5205 H       1  UNL1        0.1671
     21 CL        143.1198  132.5535  154.5093 Cl      1  UNL1       -0.0822
     22 C         143.0465  133.8553  155.2509 C.ar    1  UNL1        0.0577
     23 C         142.8083  135.1328  154.5018 C.ar    1  UNL1        0.0114
     24 C         142.7350  136.4346  155.2434 C.ar    1  UNL1        0.0023
     25 C         142.8998  136.4589  156.7341 C.ar    1  UNL1        0.0172
     26 C         143.1380  135.1814  157.4832 C.ar    1  UNL1        0.0023
     27 C         143.2113  133.8796  156.7416 C.ar    1  UNL1        0.0114
     28 C         140.2479  143.2111  161.9690 C.3     1  UNL1        0.0252
     29 C         138.9107  143.2463  162.6476 C.3     1  UNL1        0.0339
     30 C         138.1273  144.5247  162.6953 C.3     1  UNL1        0.1422
     31 O         138.6812  145.7677  162.0643 O.3     1  UNL1       -0.3538
     32 C         140.0184  145.7325  161.3857 C.3     1  UNL1        0.1422
     33 C         140.8017  144.4542  161.3380 C.3     1  UNL1        0.0339
@<TRIPOS>BOND
     1    21    22    1
     2    22    23   ar
     3    23    24   ar
     4    24    25   ar
     5    25    15    1
     6    15    16   ar
     7    16    17   ar
     8    17    18   ar
     9     1    18    1
    10     1     2    1
    11     2     3    1
    12     3     4    2
    13     4     5    1
    14     5     6    2
    15     6     7    1
    16     7     8    1
    17     8     9    2
    18     9    10    1
    19    10    11    2
    20     4    12    1
    21    12    28    1
    22    28    29    1
    23    29    30    1
    24    30    31    1
    25    31    32    1
    26    32    33    1
    27    12    13    1
    28    18    19   ar
    29    25    26   ar
    30    26    27   ar
    31    27    22   ar
    32    19    15   ar
    33    13     1    1
    34    11     3    1
    35    33    28    1
    36    11     6    1
    37    13    14    1
    38    19    20    1
@<TRIPOS>MOLECULE
*****
 33 38 0 0 0
SMALL
GASTEIGER

@<TRIPOS>ATOM
      1 C         141.4330  139.0774  158.4830 C.3     1  UNL1        0.1161
      2 C         142.5031  140.1238  158.3833 C.3     1  UNL1        0.0510
      3 C         143.5866  139.9929  157.3543 C.2     1  UNL1       -0.0044
      4 C         143.6001  138.8155  156.4250 C.2     1  UNL1        0.0689
      5 N         144.7867  138.9544  155.5181 N.2     1  UNL1       -0.2526
      6 C         145.5067  140.2177  155.8869 C.2     1  UNL1        0.0627
      7 C         146.7418  140.8664  155.3359 C.3     1  UNL1        0.0717
      8 C         147.2351  142.1570  155.9198 C.2     1  UNL1       -0.0198
      9 C         146.4934  142.7988  157.0547 C.2     1  UNL1       -0.0042
     10 C         145.2583  142.1501  157.6056 C.2     1  UNL1        0.0006
     11 C         144.7649  140.8595  157.0217 C.2     1  UNL1        0.0111
     12 C         142.5300  137.7690  156.5248 C.3     1  UNL1        0.0949
     13 N         141.4465  137.9000  157.5537 N.3     1  UNL1       -0.2887
     14 H         141.4922  137.0647  158.1374 H       1  UNL1        0.1239
     15 C         139.1691  139.2175  161.6327 C.ar    1  UNL1        0.0769
     16 C         138.1954  139.6021  160.5585 C.ar    1  UNL1        0.1171
     17 N         138.9249  139.5964  159.2479 N.ar    1  UNL1       -0.2282
     18 C         140.3495  139.2083  159.5121 C.ar    1  UNL1        0.1318
     19 N         140.5005  138.9742  160.9859 N.ar    1  UNL1       -0.3397
     20 H         141.3281  138.7075  161.4477 H       1  UNL1        0.1671
     21 CL        137.9524  138.7370  167.4884 Cl      1  UNL1       -0.0822
     22 C         138.2566  138.8571  166.0244 C.ar    1  UNL1        0.0577
     23 C         138.7151  137.6554  165.2526 C.ar    1  UNL1        0.0114
     24 C         139.0192  137.7756  163.7887 C.ar    1  UNL1        0.0023
     25 C         138.8649  139.0974  163.0966 C.ar    1  UNL1        0.0172
     26 C         138.4064  140.2991  163.8685 C.ar    1  UNL1        0.0023
     27 C         138.1023  140.1789  165.3323 C.ar    1  UNL1        0.0114
     28 C         142.5435  136.5917  155.5955 C.3     1  UNL1        0.0252
     29 C         143.1331  135.2879  156.0453 C.3     1  UNL1        0.0339
     30 C         143.1465  134.1105  155.1160 C.3     1  UNL1        0.1422
     31 O         142.5704  134.2369  153.7369 O.3     1  UNL1       -0.3538
     32 C         141.9807  135.5408  153.2870 C.3     1  UNL1        0.1422
     33 C         141.9673  136.7181  154.2163 C.3     1  UNL1        0.0339
@<TRIPOS>BOND
     1    21    22    1
     2    22    23   ar
     3    23    24   ar
     4    24    25   ar
     5    25    15    1
     6    15    16   ar
     7    16    17   ar
     8    17    18   ar
     9     1    18    1
    10     1     2    1
    11     2     3    1
    12     3     4    2
    13     4     5    1
    14     5     6    2
    15     6     7    1
    16     7     8    1
    17     8     9    2
    18     9    10    1
    19    10    11    2
    20     4    12    1
    21    12    28    1
    22    28    29    1
    23    29    30    1
    24    30    31    1
    25    31    32    1
    26    32    33    1
    27    12    13    1
    28    18    19   ar
    29    25    26   ar
    30    26    27   ar
    31    27    22   ar
    32    19    15   ar
    33    13     1    1
    34    11     3    1
    35    33    28    1
    36    11     6    1
    37    13    14    1
    38    19    20    1
@<TRIPOS>MOLECULE
*****
 33 38 0 0 0
SMALL
GASTEIGER

@<TRIPOS>ATOM
      1 C         142.4794  139.6024  158.2192 C.3     1  UNL1        0.1161
      2 C         143.1572  139.5967  159.5573 C.3     1  UNL1        0.0510
      3 C         143.4258  140.8903  160.2675 C.2     1  UNL1       -0.0044
      4 C         143.0167  142.1897  159.6395 C.2     1  UNL1        0.0689
      5 N         143.4099  143.2983  160.5702 N.2     1  UNL1       -0.2526
      6 C         144.0621  142.6842  161.7734 C.2     1  UNL1        0.0627
      7 C         144.6482  143.2879  163.0151 C.3     1  UNL1        0.0717
      8 C         145.2443  142.4034  164.0697 C.2     1  UNL1       -0.0198
      9 C         145.2541  140.9151  163.8826 C.2     1  UNL1       -0.0042
     10 C         144.6680  140.3114  162.6409 C.2     1  UNL1        0.0006
     11 C         144.0719  141.1960  161.5863 C.2     1  UNL1        0.0111
     12 C         142.3389  142.1954  158.3014 C.3     1  UNL1        0.0949
     13 N         142.0703  140.9017  157.5912 N.3     1  UNL1       -0.2887
     14 H         142.5458  140.9561  156.6905 H       1  UNL1        0.1239
     15 C         142.4582  136.0519  156.6512 C.ar    1  UNL1        0.0769
     16 C         141.1370  136.5841  156.1812 C.ar    1  UNL1        0.1171
     17 N         140.9841  137.9790  156.7114 N.ar    1  UNL1       -0.2282
     18 C         142.2108  138.3087  157.5090 C.ar    1  UNL1        0.1318
     19 N         143.1219  137.1177  157.4718 N.ar    1  UNL1       -0.3397
     20 H         144.0012  137.0479  157.9092 H       1  UNL1        0.1671
     21 CL        144.6958  130.6140  155.4582 Cl      1  UNL1       -0.0822
     22 C         144.1364  131.9735  155.7565 C.ar    1  UNL1        0.0577
     23 C         144.4573  132.6476  157.0574 C.ar    1  UNL1        0.0114
     24 C         143.8979  134.0071  157.3557 C.ar    1  UNL1        0.0023
     25 C         143.0176  134.6924  156.3529 C.ar    1  UNL1        0.0172
     26 C         142.6967  134.0182  155.0520 C.ar    1  UNL1        0.0023
     27 C         143.2561  132.6588  154.7538 C.ar    1  UNL1        0.0114
     28 C         141.9297  143.4947  157.6734 C.3     1  UNL1        0.0252
     29 C         140.8482  144.3232  158.3009 C.3     1  UNL1        0.0339
     30 C         140.4391  145.6225  157.6729 C.3     1  UNL1        0.1422
     31 O         141.1114  146.0933  156.4174 O.3     1  UNL1       -0.3538
     32 C         142.1930  145.2647  155.7899 C.3     1  UNL1        0.1422
     33 C         142.6021  143.9655  156.4179 C.3     1  UNL1        0.0339
@<TRIPOS>BOND
     1    21    22    1
     2    22    23   ar
     3    23    24   ar
     4    24    25   ar
     5    25    15    1
     6    15    16   ar
     7    16    17   ar
     8    17    18   ar
     9     1    18    1
    10     1     2    1
    11     2     3    1
    12     3     4    2
    13     4     5    1
    14     5     6    2
    15     6     7    1
    16     7     8    1
    17     8     9    2
    18     9    10    1
    19    10    11    2
    20     4    12    1
    21    12    28    1
    22    28    29    1
    23    29    30    1
    24    30    31    1
    25    31    32    1
    26    32    33    1
    27    12    13    1
    28    18    19   ar
    29    25    26   ar
    30    26    27   ar
    31    27    22   ar
    32    19    15   ar
    33    13     1    1
    34    11     3    1
    35    33    28    1
    36    11     6    1
    37    13    14    1
    38    19    20    1
@<TRIPOS>MOLECULE
*****
 33 38 0 0 0
SMALL
GASTEIGER

@<TRIPOS>ATOM
      1 C         143.1181  139.2947  158.0674 C.3     1  UNL1        0.1161
      2 C         142.3367  140.4813  157.5864 C.3     1  UNL1        0.0510
      3 C         142.1757  141.6820  158.4709 C.2     1  UNL1       -0.0044
      4 C         142.7960  141.6960  159.8366 C.2     1  UNL1        0.0689
      5 N         142.4702  143.0111  160.4801 N.2     1  UNL1       -0.2526
      6 C         141.6485  143.8099  159.5123 C.2     1  UNL1        0.0627
      7 C         141.0426  145.1791  159.6013 C.3     1  UNL1        0.0717
      8 C         140.2546  145.7269  158.4485 C.2     1  UNL1       -0.0198
      9 C         140.0725  144.9054  157.2067 C.2     1  UNL1       -0.0042
     10 C         140.6785  143.5362  157.1177 C.2     1  UNL1        0.0006
     11 C         141.4665  142.9884  158.2705 C.2     1  UNL1        0.0111
     12 C         143.5774  140.5093  160.3176 C.3     1  UNL1        0.0949
     13 N         143.7385  139.3087  159.4330 N.3     1  UNL1       -0.2887
     14 H         143.3498  138.5143  159.9412 H       1  UNL1        0.1239
     15 C         143.1195  135.8385  156.3011 C.ar    1  UNL1        0.0769
     16 C         143.9344  136.6544  155.3419 C.ar    1  UNL1        0.1171
     17 N         144.0332  138.0485  155.8868 N.ar    1  UNL1       -0.2282
     18 C         143.2792  138.0940  157.1827 C.ar    1  UNL1        0.1318
     19 N         142.7145  136.7282  157.4388 N.ar    1  UNL1       -0.3397
     20 H         142.1731  136.4624  158.2169 H       1  UNL1        0.1671
     21 CL        141.7243  130.0346  155.6936 Cl      1  UNL1       -0.0822
     22 C         142.0731  131.4856  155.8455 C.ar    1  UNL1        0.0577
     23 C         141.3536  132.5192  155.0306 C.ar    1  UNL1        0.0114
     24 C         141.7024  133.9701  155.1825 C.ar    1  UNL1        0.0023
     25 C         142.7707  134.3875  156.1492 C.ar    1  UNL1        0.0172
     26 C         143.4902  133.3539  156.9641 C.ar    1  UNL1        0.0023
     27 C         143.1414  131.9030  156.8122 C.ar    1  UNL1        0.0114
     28 C         144.1977  140.5233  161.6833 C.3     1  UNL1        0.0252
     29 C         143.9889  139.3656  162.6138 C.3     1  UNL1        0.0339
     30 C         144.6093  139.3797  163.9795 C.3     1  UNL1        0.1422
     31 O         145.4385  140.5515  164.4145 O.3     1  UNL1       -0.3538
     32 C         145.6473  141.7093  163.4840 C.3     1  UNL1        0.1422
     33 C         145.0270  141.6952  162.1184 C.3     1  UNL1        0.0339
@<TRIPOS>BOND
     1    21    22    1
     2    22    23   ar
     3    23    24   ar
     4    24    25   ar
     5    25    15    1
     6    15    16   ar
     7    16    17   ar
     8    17    18   ar
     9     1    18    1
    10     1     2    1
    11     2     3    1
    12     3     4    2
    13     4     5    1
    14     5     6    2
    15     6     7    1
    16     7     8    1
    17     8     9    2
    18     9    10    1
    19    10    11    2
    20     4    12    1
    21    12    28    1
    22    28    29    1
    23    29    30    1
    24    30    31    1
    25    31    32    1
    26    32    33    1
    27    12    13    1
    28    18    19   ar
    29    25    26   ar
    30    26    27   ar
    31    27    22   ar
    32    19    15   ar
    33    13     1    1
    34    11     3    1
    35    33    28    1
    36    11     6    1
    37    13    14    1
    38    19    20    1
@<TRIPOS>MOLECULE
*****
 33 38 0 0 0
SMALL
GASTEIGER

@<TRIPOS>ATOM
      1 C         143.2352  142.2696  160.1298 C.3     1  UNL1        0.1161
      2 C         144.4800  142.4810  159.3200 C.3     1  UNL1        0.0510
      3 C         144.5965  141.8767  157.9521 C.2     1  UNL1       -0.0044
      4 C         143.4682  141.0610  157.3940 C.2     1  UNL1        0.0689
      5 N         143.8670  140.5933  156.0257 N.2     1  UNL1       -0.2526
      6 C         145.2418  141.1199  155.7382 C.2     1  UNL1        0.0627
      7 C         146.1413  140.9796  154.5461 C.3     1  UNL1        0.0717
      8 C         147.4917  141.6325  154.5446 C.2     1  UNL1       -0.0198
      9 C         147.9426  142.4257  155.7352 C.2     1  UNL1       -0.0042
     10 C         147.0431  142.5660  156.9273 C.2     1  UNL1        0.0006
     11 C         145.6927  141.9131  156.9288 C.2     1  UNL1        0.0111
     12 C         142.2234  140.8496  158.2038 C.3     1  UNL1        0.0949
     13 N         142.1069  141.4539  159.5717 N.3     1  UNL1       -0.2887
     14 H         141.9510  140.6834  160.2216 H       1  UNL1        0.1239
     15 C         142.6970  143.1471  163.8722 C.ar    1  UNL1        0.0769
     16 C         143.1821  144.4603  163.3335 C.ar    1  UNL1        0.1171
     17 N         143.4427  144.2914  161.8660 N.ar    1  UNL1       -0.2282
     18 C         143.1188  142.8739  161.4978 C.ar    1  UNL1        0.1318
     19 N         142.6579  142.1666  162.7377 N.ar    1  UNL1       -0.3397
     20 H         142.3788  141.2244  162.7965 H       1  UNL1        0.1671
     21 CL        141.1798  142.0149  169.5658 Cl      1  UNL1       -0.0822
     22 C         141.5592  142.2979  168.1424 C.ar    1  UNL1        0.0577
     23 C         142.9893  142.1720  167.7081 C.ar    1  UNL1        0.0114
     24 C         143.3686  142.4550  166.2847 C.ar    1  UNL1        0.0023
     25 C         142.3177  142.8641  165.2957 C.ar    1  UNL1        0.0172
     26 C         140.8875  142.9900  165.7299 C.ar    1  UNL1        0.0023
     27 C         140.5082  142.7070  167.1533 C.ar    1  UNL1        0.0114
     28 C         141.0951  140.0339  157.6456 C.3     1  UNL1        0.0252
     29 C         139.9010  140.7162  157.0468 C.3     1  UNL1        0.0339
     30 C         138.7727  139.9004  156.4887 C.3     1  UNL1        0.1422
     31 O         138.8385  138.4024  156.5294 O.3     1  UNL1       -0.3538
     32 C         140.0326  137.7201  157.1283 C.3     1  UNL1        0.1422
     33 C         141.1608  138.5358  157.6864 C.3     1  UNL1        0.0339
@<TRIPOS>BOND
     1    21    22    1
     2    22    23   ar
     3    23    24   ar
     4    24    25   ar
     5    25    15    1
     6    15    16   ar
     7    16    17   ar
     8    17    18   ar
     9     1    18    1
    10     1     2    1
    11     2     3    1
    12     3     4    2
    13     4     5    1
    14     5     6    2
    15     6     7    1
    16     7     8    1
    17     8     9    2
    18     9    10    1
    19    10    11    2
    20     4    12    1
    21    12    28    1
    22    28    29    1
    23    29    30    1
    24    30    31    1
    25    31    32    1
    26    32    33    1
    27    12    13    1
    28    18    19   ar
    29    25    26   ar
    30    26    27   ar
    31    27    22   ar
    32    19    15   ar
    33    13     1    1
    34    11     3    1
    35    33    28    1
    36    11     6    1
    37    13    14    1
    38    19    20    1
@<TRIPOS>MOLECULE
*****
 33 38 0 0 0
SMALL
GASTEIGER

@<TRIPOS>ATOM
      1 C         140.8711  144.5655  157.6970 C.3     1  UNL1        0.1161
      2 C         141.0379  144.9120  159.1469 C.3     1  UNL1        0.0510
      3 C         141.8205  144.0051  160.0496 C.2     1  UNL1       -0.0044
      4 C         142.4365  142.7517  159.5024 C.2     1  UNL1        0.0689
      5 N         143.1482  142.0567  160.6251 N.2     1  UNL1       -0.2526
      6 C         142.9720  142.8806  161.8662 C.2     1  UNL1        0.0627
      7 C         143.4528  142.6898  163.2741 C.3     1  UNL1        0.0717
      8 C         143.1130  143.7033  164.3264 C.2     1  UNL1       -0.0198
      9 C         142.2924  144.9076  163.9707 C.2     1  UNL1       -0.0042
     10 C         141.8117  145.0983  162.5627 C.2     1  UNL1        0.0006
     11 C         142.1515  144.0848  161.5104 C.2     1  UNL1        0.0111
     12 C         142.2698  142.4051  158.0525 C.3     1  UNL1        0.0949
     13 N         141.4871  143.3120  157.1498 N.3     1  UNL1       -0.2887
     14 H         140.7260  142.7552  156.7611 H       1  UNL1        0.1239
     15 C         139.3138  147.4463  155.6135 C.ar    1  UNL1        0.0769
     16 C         138.4542  146.2899  155.1969 C.ar    1  UNL1        0.1171
     17 N         138.9330  145.0699  155.9266 N.ar    1  UNL1       -0.2282
     18 C         140.0884  145.4724  156.7942 C.ar    1  UNL1        0.1318
     19 N         140.3238  146.9411  156.6008 N.ar    1  UNL1       -0.3397
     20 H         141.0191  147.4791  157.0440 H       1  UNL1        0.1671
     21 CL        138.8021  153.1005  153.6722 Cl      1  UNL1       -0.0822
     22 C         138.9300  151.6869  154.1576 C.ar    1  UNL1        0.0577
     23 C         138.4055  151.3083  155.5109 C.ar    1  UNL1        0.0114
     24 C         138.5334  149.8948  155.9962 C.ar    1  UNL1        0.0023
     25 C         139.1859  148.8599  155.1282 C.ar    1  UNL1        0.0172
     26 C         139.7104  149.2386  153.7749 C.ar    1  UNL1        0.0023
     27 C         139.5825  150.6521  153.2896 C.ar    1  UNL1        0.0114
     28 C         142.8858  141.1516  157.5053 C.3     1  UNL1        0.0252
     29 C         144.0846  141.2351  156.6078 C.3     1  UNL1        0.0339
     30 C         144.7006  139.9815  156.0606 C.3     1  UNL1        0.1422
     31 O         144.1176  138.6446  156.4110 O.3     1  UNL1       -0.3538
     32 C         142.9187  138.5612  157.3087 C.3     1  UNL1        0.1422
     33 C         142.3028  139.8146  157.8558 C.3     1  UNL1        0.0339
@<TRIPOS>BOND
     1    21    22    1
     2    22    23   ar
     3    23    24   ar
     4    24    25   ar
     5    25    15    1
     6    15    16   ar
     7    16    17   ar
     8    17    18   ar
     9     1    18    1
    10     1     2    1
    11     2     3    1
    12     3     4    2
    13     4     5    1
    14     5     6    2
    15     6     7    1
    16     7     8    1
    17     8     9    2
    18     9    10    1
    19    10    11    2
    20     4    12    1
    21    12    28    1
    22    28    29    1
    23    29    30    1
    24    30    31    1
    25    31    32    1
    26    32    33    1
    27    12    13    1
    28    18    19   ar
    29    25    26   ar
    30    26    27   ar
    31    27    22   ar
    32    19    15   ar
    33    13     1    1
    34    11     3    1
    35    33    28    1
    36    11     6    1
    37    13    14    1
    38    19    20    1
