@<TRIPOS>MOLECULE
*****
 32 35 0 0 0
SMALL
GASTEIGER

@<TRIPOS>ATOM
      1 C         140.7321  136.9594  163.6084 C.3     1  UNL1        0.0203
      2 C         139.8196  138.1202  163.8733 C.3     1  UNL1        0.0888
      3 N         139.7025  138.6809  165.2596 N.3     1  UNL1       -0.2713
      4 C         138.4449  138.4713  166.0497 C.3     1  UNL1        0.0749
      5 C         138.3278  139.0320  167.4360 C.3     1  UNL1        0.0485
      6 C         139.4684  139.8023  168.0323 C.3     1  UNL1        0.1097
      7 O         138.4886  139.8681  169.1663 O.3     1  UNL1       -0.3826
      8 C         140.7261  140.0120  167.2422 C.3     1  UNL1        0.0485
      9 C         140.8432  139.4513  165.8559 C.3     1  UNL1        0.0749
     10 H         137.6766  139.3983  168.9196 H       1  UNL1        0.2107
     11 C         140.2687  140.5956  169.0224 C.ar    1  UNL1        0.0040
     12 C         141.1477  139.8909  170.0128 C.ar    1  UNL1       -0.0019
     13 C         141.9480  140.6841  171.0028 C.ar    1  UNL1        0.0021
     14 C         141.8694  142.1821  171.0025 C.ar    1  UNL1        0.0296
     15 C         140.9905  142.8868  170.0121 C.ar    1  UNL1        0.1399
     16 F         140.9119  144.3847  170.0117 F       1  UNL1       -0.2042
     17 C         140.1902  142.0935  169.0220 C.ar    1  UNL1        0.0276
     18 C         139.0243  138.7202  162.7520 C.3     1  UNL1        0.1472
     19 O         138.3414  137.8298  161.7566 O.3     1  UNL1       -0.3787
     20 H         137.8747  138.3737  161.1030 H       1  UNL1        0.2108
     21 C         138.9119  140.2107  162.6260 C.ar    1  UNL1        0.0053
     22 C         137.6407  140.9029  163.0196 C.ar    1  UNL1       -0.0007
     23 C         137.5283  142.3933  162.8936 C.ar    1  UNL1        0.0141
     24 C         138.6870  143.1916  162.3740 C.ar    1  UNL1        0.0462
     25 C         139.9582  142.4994  161.9804 C.ar    1  UNL1       -0.0085
     26 C         140.0706  141.0090  162.1064 C.ar    1  UNL1       -0.0049
     27 C         141.1170  143.2977  161.4607 C.3     1  UNL1        0.0372
     28 C         141.0046  144.7882  161.3347 C.3     1  UNL1        0.0901
     29 C         139.7333  145.4804  161.7284 C.2     1  UNL1        0.2264
     30 O         139.6209  146.9708  161.6024 O.2     1  UNL1       -0.2748
     31 N         138.5746  144.6821  162.2480 N.am    1  UNL1       -0.2842
     32 H         137.7402  145.1364  162.5064 H       1  UNL1        0.1548
@<TRIPOS>BOND
     1     1     2    1
     2     2    18    1
     3    18    19    1
     4    18    21    1
     5    21    22   ar
     6    22    23   ar
     7    23    24   ar
     8    24    25   ar
     9    25    26   ar
    10    25    27    1
    11    27    28    1
    12    28    29    1
    13    29    30    2
    14    29    31   am
    15     2     3    1
    16     3     4    1
    17     4     5    1
    18     5     6    1
    19     6     7    1
    20     6    11    1
    21    11    12   ar
    22    12    13   ar
    23    13    14   ar
    24    14    15   ar
    25    15    16    1
    26    15    17   ar
    27     6     8    1
    28     8     9    1
    29    26    21   ar
    30     9     3    1
    31    31    24    1
    32    17    11   ar
    33    19    20    1
    34    31    32    1
    35     7    10    1
@<TRIPOS>MOLECULE
*****
 32 35 0 0 0
SMALL
GASTEIGER

@<TRIPOS>ATOM
      1 C         139.1350  138.8447  162.6716 C.3     1  UNL1        0.0203
      2 C         138.7126  140.0401  163.4733 C.3     1  UNL1        0.0888
      3 N         138.9519  140.0730  164.9537 N.3     1  UNL1       -0.2713
      4 C         138.1241  139.2177  165.8665 C.3     1  UNL1        0.0749
      5 C         138.3634  139.2505  167.3469 C.3     1  UNL1        0.0485
      6 C         139.4306  140.1387  167.9146 C.3     1  UNL1        0.1097
      7 O         138.9106  139.5168  169.1767 O.3     1  UNL1       -0.3826
      8 C         140.2585  140.9941  167.0018 C.3     1  UNL1        0.0485
      9 C         140.0191  140.9612  165.5214 C.3     1  UNL1        0.0749
     10 H         138.1938  138.8998  168.9617 H       1  UNL1        0.2107
     11 C         140.3172  140.8109  168.9206 C.ar    1  UNL1        0.0040
     12 C         141.2085  139.9883  169.8031 C.ar    1  UNL1       -0.0019
     13 C         142.0951  140.6604  170.8091 C.ar    1  UNL1        0.0021
     14 C         142.0904  142.1554  170.9326 C.ar    1  UNL1        0.0296
     15 C         141.1992  142.9781  170.0501 C.ar    1  UNL1        0.1399
     16 F         141.1945  144.4729  170.1736 F       1  UNL1       -0.2042
     17 C         140.3125  142.3058  169.0441 C.ar    1  UNL1        0.0276
     18 C         138.0508  141.2025  162.7946 C.3     1  UNL1        0.1472
     19 O         136.5561  141.3276  162.8086 O.3     1  UNL1       -0.3787
     20 H         136.2942  142.1289  162.3288 H       1  UNL1        0.2108
     21 C         138.8838  142.2400  162.1018 C.ar    1  UNL1        0.0053
     22 C         139.4379  143.3978  162.8779 C.ar    1  UNL1       -0.0007
     23 C         140.2708  144.4352  162.1851 C.ar    1  UNL1        0.0141
     24 C         140.5496  144.3148  160.7162 C.ar    1  UNL1        0.0462
     25 C         139.9956  143.1570  159.9400 C.ar    1  UNL1       -0.0085
     26 C         139.1626  142.1196  160.6328 C.ar    1  UNL1       -0.0049
     27 C         140.2744  143.0365  158.4711 C.3     1  UNL1        0.0372
     28 C         141.1073  144.0739  157.7783 C.3     1  UNL1        0.0901
     29 C         141.6614  145.2318  158.5544 C.2     1  UNL1        0.2264
     30 O         142.4944  146.2692  157.8616 O.2     1  UNL1       -0.2748
     31 N         141.3826  145.3522  160.0234 N.am    1  UNL1       -0.2842
     32 H         141.7463  146.1122  160.5328 H       1  UNL1        0.1548
@<TRIPOS>BOND
     1     1     2    1
     2     2    18    1
     3    18    19    1
     4    18    21    1
     5    21    22   ar
     6    22    23   ar
     7    23    24   ar
     8    24    25   ar
     9    25    26   ar
    10    25    27    1
    11    27    28    1
    12    28    29    1
    13    29    30    2
    14    29    31   am
    15     2     3    1
    16     3     4    1
    17     4     5    1
    18     5     6    1
    19     6     7    1
    20     6    11    1
    21    11    12   ar
    22    12    13   ar
    23    13    14   ar
    24    14    15   ar
    25    15    16    1
    26    15    17   ar
    27     6     8    1
    28     8     9    1
    29    26    21   ar
    30     9     3    1
    31    31    24    1
    32    17    11   ar
    33    19    20    1
    34    31    32    1
    35     7    10    1
@<TRIPOS>MOLECULE
*****
 32 35 0 0 0
SMALL
GASTEIGER

@<TRIPOS>ATOM
      1 C         139.4475  137.4073  164.6965 C.3     1  UNL1        0.0203
      2 C         138.8994  138.6886  165.2516 C.3     1  UNL1        0.0888
      3 N         138.7649  139.8924  164.3669 N.3     1  UNL1       -0.2713
      4 C         137.4101  140.3253  163.8903 C.3     1  UNL1        0.0749
      5 C         137.2757  141.5291  163.0056 C.3     1  UNL1        0.0485
      6 C         138.4959  142.3000  162.5974 C.3     1  UNL1        0.1097
      7 O         137.4372  143.0968  161.8943 O.3     1  UNL1       -0.3826
      8 C         139.8508  141.8671  163.0740 C.3     1  UNL1        0.0485
      9 C         139.9853  140.6633  163.9587 C.3     1  UNL1        0.0749
     10 H         136.5674  142.7056  162.0710 H       1  UNL1        0.2107
     11 C         139.3486  143.3476  161.9450 C.ar    1  UNL1        0.0040
     12 C         140.4593  142.9427  161.0219 C.ar    1  UNL1       -0.0019
     13 C         141.3119  143.9902  160.3695 C.ar    1  UNL1        0.0021
     14 C         141.0538  145.4429  160.6404 C.ar    1  UNL1        0.0296
     15 C         139.9431  145.8478  161.5635 C.ar    1  UNL1        0.1399
     16 F         139.6849  147.3004  161.8343 F       1  UNL1       -0.2042
     17 C         139.0904  144.8002  162.2159 C.ar    1  UNL1        0.0276
     18 C         138.4858  138.7660  166.6914 C.3     1  UNL1        0.1472
     19 O         137.3301  137.9468  167.1848 O.3     1  UNL1       -0.3787
     20 H         137.1966  138.1131  168.1310 H       1  UNL1        0.2108
     21 C         139.2278  139.6625  167.6378 C.ar    1  UNL1        0.0053
     22 C         138.6164  140.0308  168.9570 C.ar    1  UNL1       -0.0007
     23 C         139.3584  140.9274  169.9033 C.ar    1  UNL1        0.0141
     24 C         140.7119  141.4556  169.5304 C.ar    1  UNL1        0.0462
     25 C         141.3233  141.0873  168.2112 C.ar    1  UNL1       -0.0085
     26 C         140.5813  140.1908  167.2648 C.ar    1  UNL1       -0.0049
     27 C         142.6768  141.6156  167.8382 C.3     1  UNL1        0.0372
     28 C         143.4188  142.5121  168.7845 C.3     1  UNL1        0.0901
     29 C         142.8074  142.8804  170.1039 C.2     1  UNL1        0.2264
     30 O         143.5494  143.7770  171.0502 O.2     1  UNL1       -0.2748
     31 N         141.4539  142.3522  170.4768 N.am    1  UNL1       -0.2842
     32 H         141.0526  142.5939  171.3427 H       1  UNL1        0.1548
@<TRIPOS>BOND
     1     1     2    1
     2     2    18    1
     3    18    19    1
     4    18    21    1
     5    21    22   ar
     6    22    23   ar
     7    23    24   ar
     8    24    25   ar
     9    25    26   ar
    10    25    27    1
    11    27    28    1
    12    28    29    1
    13    29    30    2
    14    29    31   am
    15     2     3    1
    16     3     4    1
    17     4     5    1
    18     5     6    1
    19     6     7    1
    20     6    11    1
    21    11    12   ar
    22    12    13   ar
    23    13    14   ar
    24    14    15   ar
    25    15    16    1
    26    15    17   ar
    27     6     8    1
    28     8     9    1
    29    26    21   ar
    30     9     3    1
    31    31    24    1
    32    17    11   ar
    33    19    20    1
    34    31    32    1
    35     7    10    1
@<TRIPOS>MOLECULE
*****
 32 35 0 0 0
SMALL
GASTEIGER

@<TRIPOS>ATOM
      1 C         138.2055  138.6005  162.5267 C.3     1  UNL1        0.0203
      2 C         138.5943  139.8464  163.2660 C.3     1  UNL1        0.0888
      3 N         139.5476  139.7662  164.4214 N.3     1  UNL1       -0.2713
      4 C         140.7320  138.8484  164.3541 C.3     1  UNL1        0.0749
      5 C         141.6853  138.7682  165.5095 C.3     1  UNL1        0.0485
      6 C         141.4541  139.6058  166.7321 C.3     1  UNL1        0.1097
      7 O         142.7098  138.8929  167.1385 O.3     1  UNL1       -0.3826
      8 C         140.2696  140.5237  166.7994 C.3     1  UNL1        0.0485
      9 C         139.3163  140.6039  165.6441 C.3     1  UNL1        0.0749
     10 H         142.9886  138.2972  166.4255 H       1  UNL1        0.2107
     11 C         141.6590  140.1959  168.0959 C.ar    1  UNL1        0.0040
     12 C         140.6186  140.0054  169.1595 C.ar    1  UNL1       -0.0019
     13 C         140.8234  140.5954  170.5233 C.ar    1  UNL1        0.0021
     14 C         142.0687  141.3760  170.8235 C.ar    1  UNL1        0.0296
     15 C         143.1091  141.5665  169.7599 C.ar    1  UNL1        0.1399
     16 F         144.3543  142.3470  170.0600 F       1  UNL1       -0.2042
     17 C         142.9042  140.9764  168.3960 C.ar    1  UNL1        0.0276
     18 C         138.0299  141.1724  162.8500 C.3     1  UNL1        0.1472
     19 O         136.5898  141.4929  163.1210 O.3     1  UNL1       -0.3787
     20 H         136.3890  142.3827  162.7911 H       1  UNL1        0.2108
     21 C         138.9057  142.1781  162.1630 C.ar    1  UNL1        0.0053
     22 C         139.7740  143.0942  162.9733 C.ar    1  UNL1       -0.0007
     23 C         140.6497  144.0997  162.2863 C.ar    1  UNL1        0.0141
     24 C         140.6570  144.1892  160.7890 C.ar    1  UNL1        0.0462
     25 C         139.7886  143.2731  159.9787 C.ar    1  UNL1       -0.0085
     26 C         138.9130  142.2675  160.6657 C.ar    1  UNL1       -0.0049
     27 C         139.7960  143.3625  158.4814 C.3     1  UNL1        0.0372
     28 C         140.6716  144.3680  157.7944 C.3     1  UNL1        0.0901
     29 C         141.5400  145.2842  158.6047 C.2     1  UNL1        0.2264
     30 O         142.4157  146.2898  157.9177 O.2     1  UNL1       -0.2748
     31 N         141.5327  145.1948  160.1020 N.am    1  UNL1       -0.2842
     32 H         142.1026  145.7961  160.6339 H       1  UNL1        0.1548
@<TRIPOS>BOND
     1     1     2    1
     2     2    18    1
     3    18    19    1
     4    18    21    1
     5    21    22   ar
     6    22    23   ar
     7    23    24   ar
     8    24    25   ar
     9    25    26   ar
    10    25    27    1
    11    27    28    1
    12    28    29    1
    13    29    30    2
    14    29    31   am
    15     2     3    1
    16     3     4    1
    17     4     5    1
    18     5     6    1
    19     6     7    1
    20     6    11    1
    21    11    12   ar
    22    12    13   ar
    23    13    14   ar
    24    14    15   ar
    25    15    16    1
    26    15    17   ar
    27     6     8    1
    28     8     9    1
    29    26    21   ar
    30     9     3    1
    31    31    24    1
    32    17    11   ar
    33    19    20    1
    34    31    32    1
    35     7    10    1
@<TRIPOS>MOLECULE
*****
 32 35 0 0 0
SMALL
GASTEIGER

@<TRIPOS>ATOM
      1 C         144.1399  144.2249  162.8083 C.3     1  UNL1        0.0203
      2 C         143.9805  142.7972  163.2402 C.3     1  UNL1        0.0888
      3 N         142.8704  142.4156  164.1740 N.3     1  UNL1       -0.2713
      4 C         141.6396  141.7440  163.6411 C.3     1  UNL1        0.0749
      5 C         140.5295  141.3624  164.5749 C.3     1  UNL1        0.0485
      6 C         140.6502  141.6524  166.0416 C.3     1  UNL1        0.1097
      7 O         139.2982  141.0032  166.0149 O.3     1  UNL1       -0.3826
      8 C         141.8810  142.3241  166.5746 C.3     1  UNL1        0.0485
      9 C         142.9911  142.7057  165.6408 C.3     1  UNL1        0.0749
     10 H         139.0774  140.7535  165.1039 H       1  UNL1        0.2107
     11 C         140.3013  141.7170  167.4991 C.ar    1  UNL1        0.0040
     12 C         139.7772  140.4985  168.1995 C.ar    1  UNL1       -0.0019
     13 C         139.4284  140.5630  169.6569 C.ar    1  UNL1        0.0021
     14 C         139.6036  141.8462  170.4140 C.ar    1  UNL1        0.0296
     15 C         140.1277  143.0646  169.7136 C.ar    1  UNL1        0.1399
     16 F         140.3030  144.3477  170.4705 F       1  UNL1       -0.2042
     17 C         140.4766  143.0000  168.2561 C.ar    1  UNL1        0.0276
     18 C         144.9312  141.7512  162.7382 C.3     1  UNL1        0.1472
     19 O         146.3782  141.8027  163.1302 O.3     1  UNL1       -0.3787
     20 H         146.8500  141.0593  162.7233 H       1  UNL1        0.2108
     21 C         144.4350  140.6537  161.8441 C.ar    1  UNL1        0.0053
     22 C         144.2290  139.2736  162.3943 C.ar    1  UNL1       -0.0007
     23 C         143.7328  138.1761  161.5003 C.ar    1  UNL1        0.0141
     24 C         143.4425  138.4588  160.0561 C.ar    1  UNL1        0.0462
     25 C         143.6485  139.8389  159.5059 C.ar    1  UNL1       -0.0085
     26 C         144.1447  140.9364  160.3999 C.ar    1  UNL1       -0.0049
     27 C         143.3582  140.1216  158.0616 C.3     1  UNL1        0.0372
     28 C         142.8620  139.0242  157.1676 C.3     1  UNL1        0.0901
     29 C         142.6560  137.6440  157.7178 C.2     1  UNL1        0.2264
     30 O         142.1598  136.5465  156.8238 O.2     1  UNL1       -0.2748
     31 N         142.9463  137.3613  159.1620 N.am    1  UNL1       -0.2842
     32 H         142.8111  136.4554  159.5232 H       1  UNL1        0.1548
@<TRIPOS>BOND
     1     1     2    1
     2     2    18    1
     3    18    19    1
     4    18    21    1
     5    21    22   ar
     6    22    23   ar
     7    23    24   ar
     8    24    25   ar
     9    25    26   ar
    10    25    27    1
    11    27    28    1
    12    28    29    1
    13    29    30    2
    14    29    31   am
    15     2     3    1
    16     3     4    1
    17     4     5    1
    18     5     6    1
    19     6     7    1
    20     6    11    1
    21    11    12   ar
    22    12    13   ar
    23    13    14   ar
    24    14    15   ar
    25    15    16    1
    26    15    17   ar
    27     6     8    1
    28     8     9    1
    29    26    21   ar
    30     9     3    1
    31    31    24    1
    32    17    11   ar
    33    19    20    1
    34    31    32    1
    35     7    10    1
@<TRIPOS>MOLECULE
*****
 32 35 0 0 0
SMALL
GASTEIGER

@<TRIPOS>ATOM
      1 C         139.4177  140.0396  169.1866 C.3     1  UNL1        0.0203
      2 C         139.4918  139.8172  167.7050 C.3     1  UNL1        0.0888
      3 N         140.6589  140.3455  166.9248 N.3     1  UNL1       -0.2713
      4 C         141.9431  139.5718  166.8798 C.3     1  UNL1        0.0749
      5 C         143.1101  140.1001  166.0996 C.3     1  UNL1        0.0485
      6 C         142.9930  141.4022  165.3643 C.3     1  UNL1        0.1097
      7 O         144.4072  141.0366  165.0228 O.3     1  UNL1       -0.3826
      8 C         141.7088  142.1761  165.4092 C.3     1  UNL1        0.0485
      9 C         140.5417  141.6477  166.1894 C.3     1  UNL1        0.0749
     10 H         144.6325  140.1909  165.4411 H       1  UNL1        0.2107
     11 C         143.3670  142.5774  164.5103 C.ar    1  UNL1        0.0040
     12 C         143.6922  143.8952  165.1488 C.ar    1  UNL1       -0.0019
     13 C         144.0661  145.0704  164.2950 C.ar    1  UNL1        0.0021
     14 C         144.1150  144.9277  162.8025 C.ar    1  UNL1        0.0296
     15 C         143.7898  143.6099  162.1640 C.ar    1  UNL1        0.1399
     16 F         143.8386  143.4672  160.6716 F       1  UNL1       -0.2042
     17 C         143.4158  142.4347  163.0180 C.ar    1  UNL1        0.0276
     18 C         138.3989  139.0664  167.0037 C.3     1  UNL1        0.1472
     19 O         137.2847  138.4496  167.7962 O.3     1  UNL1       -0.3787
     20 H         136.6673  138.0052  167.1943 H       1  UNL1        0.2108
     21 C         138.4201  138.9325  165.5098 C.ar    1  UNL1        0.0053
     22 C         138.7849  137.6212  164.8794 C.ar    1  UNL1       -0.0007
     23 C         138.8062  137.4874  163.3856 C.ar    1  UNL1        0.0141
     24 C         138.4625  138.6648  162.5221 C.ar    1  UNL1        0.0462
     25 C         138.0976  139.9761  163.1525 C.ar    1  UNL1       -0.0085
     26 C         138.0764  140.1099  164.6463 C.ar    1  UNL1       -0.0049
     27 C         137.7540  141.1535  162.2890 C.3     1  UNL1        0.0372
     28 C         137.7752  141.0196  160.7951 C.3     1  UNL1        0.0901
     29 C         138.1400  139.7083  160.1647 C.2     1  UNL1        0.2264
     30 O         138.1613  139.5744  158.6709 O.2     1  UNL1       -0.2748
     31 N         138.4837  138.5309  161.0282 N.am    1  UNL1       -0.2842
     32 H         138.7232  137.6702  160.6145 H       1  UNL1        0.1548
@<TRIPOS>BOND
     1     1     2    1
     2     2    18    1
     3    18    19    1
     4    18    21    1
     5    21    22   ar
     6    22    23   ar
     7    23    24   ar
     8    24    25   ar
     9    25    26   ar
    10    25    27    1
    11    27    28    1
    12    28    29    1
    13    29    30    2
    14    29    31   am
    15     2     3    1
    16     3     4    1
    17     4     5    1
    18     5     6    1
    19     6     7    1
    20     6    11    1
    21    11    12   ar
    22    12    13   ar
    23    13    14   ar
    24    14    15   ar
    25    15    16    1
    26    15    17   ar
    27     6     8    1
    28     8     9    1
    29    26    21   ar
    30     9     3    1
    31    31    24    1
    32    17    11   ar
    33    19    20    1
    34    31    32    1
    35     7    10    1
@<TRIPOS>MOLECULE
*****
 32 35 0 0 0
SMALL
GASTEIGER

@<TRIPOS>ATOM
      1 C         137.6272  140.8930  162.6765 C.3     1  UNL1        0.0203
      2 C         138.4817  139.8441  163.3245 C.3     1  UNL1        0.0888
      3 N         138.9146  140.0058  164.7515 N.3     1  UNL1       -0.2713
      4 C         138.3048  139.1501  165.8219 C.3     1  UNL1        0.0749
      5 C         138.7378  139.3118  167.2489 C.3     1  UNL1        0.0485
      6 C         139.7806  140.3293  167.6056 C.3     1  UNL1        0.1097
      7 O         139.4989  139.7579  168.9637 O.3     1  UNL1       -0.3826
      8 C         140.3905  141.1851  166.5352 C.3     1  UNL1        0.0485
      9 C         139.9575  141.0233  165.1082 C.3     1  UNL1        0.0749
     10 H         138.8229  139.0663  168.8896 H       1  UNL1        0.2107
     11 C         140.7256  141.1484  168.4339 C.ar    1  UNL1        0.0040
     12 C         142.0702  140.5962  168.8040 C.ar    1  UNL1       -0.0019
     13 C         143.0153  141.4153  169.6323 C.ar    1  UNL1        0.0021
     14 C         142.6156  142.7866  170.0905 C.ar    1  UNL1        0.0296
     15 C         141.2709  143.3387  169.7204 C.ar    1  UNL1        0.1399
     16 F         140.8712  144.7100  170.1785 F       1  UNL1       -0.2042
     17 C         140.3259  142.5196  168.8920 C.ar    1  UNL1        0.0276
     18 C         138.9031  138.6335  162.5455 C.3     1  UNL1        0.1472
     19 O         138.1989  137.3255  162.7531 O.3     1  UNL1       -0.3787
     20 H         138.5917  136.6517  162.1763 H       1  UNL1        0.2108
     21 C         140.0288  138.7310  161.5588 C.ar    1  UNL1        0.0053
     22 C         141.4097  139.0806  162.0287 C.ar    1  UNL1       -0.0007
     23 C         142.5353  139.1780  161.0420 C.ar    1  UNL1        0.0141
     24 C         142.2800  138.9259  159.5856 C.ar    1  UNL1        0.0462
     25 C         140.8991  138.5763  159.1158 C.ar    1  UNL1       -0.0085
     26 C         139.7735  138.4789  160.1024 C.ar    1  UNL1       -0.0049
     27 C         140.6437  138.3242  157.6593 C.3     1  UNL1        0.0372
     28 C         141.7693  138.4217  156.6727 C.3     1  UNL1        0.0901
     29 C         143.1503  138.7713  157.1425 C.2     1  UNL1        0.2264
     30 O         144.2759  138.8687  156.1558 O.2     1  UNL1       -0.2748
     31 N         143.4057  139.0234  158.5989 N.am    1  UNL1       -0.2842
     32 H         144.3121  139.2528  158.9073 H       1  UNL1        0.1548
@<TRIPOS>BOND
     1     1     2    1
     2     2    18    1
     3    18    19    1
     4    18    21    1
     5    21    22   ar
     6    22    23   ar
     7    23    24   ar
     8    24    25   ar
     9    25    26   ar
    10    25    27    1
    11    27    28    1
    12    28    29    1
    13    29    30    2
    14    29    31   am
    15     2     3    1
    16     3     4    1
    17     4     5    1
    18     5     6    1
    19     6     7    1
    20     6    11    1
    21    11    12   ar
    22    12    13   ar
    23    13    14   ar
    24    14    15   ar
    25    15    16    1
    26    15    17   ar
    27     6     8    1
    28     8     9    1
    29    26    21   ar
    30     9     3    1
    31    31    24    1
    32    17    11   ar
    33    19    20    1
    34    31    32    1
    35     7    10    1
@<TRIPOS>MOLECULE
*****
 32 35 0 0 0
SMALL
GASTEIGER

@<TRIPOS>ATOM
      1 C         143.9269  138.9134  162.1020 C.3     1  UNL1        0.0203
      2 C         144.1301  140.1371  162.9454 C.3     1  UNL1        0.0888
      3 N         143.6965  140.1388  164.3814 N.3     1  UNL1       -0.2713
      4 C         143.8267  138.8923  165.2056 C.3     1  UNL1        0.0749
      5 C         143.3931  138.8940  166.6416 C.3     1  UNL1        0.0485
      6 C         142.8292  140.1421  167.2533 C.3     1  UNL1        0.1097
      7 O         142.7546  139.2176  168.4322 O.3     1  UNL1       -0.3826
      8 C         142.6989  141.3886  166.4290 C.3     1  UNL1        0.0485
      9 C         143.1326  141.3870  164.9931 C.3     1  UNL1        0.0749
     10 H         143.0957  138.3450  168.1809 H       1  UNL1        0.2107
     11 C         142.2394  141.0692  168.2744 C.ar    1  UNL1        0.0040
     12 C         140.7536  141.1175  168.4740 C.ar    1  UNL1       -0.0019
     13 C         140.1637  142.0446  169.4951 C.ar    1  UNL1        0.0021
     14 C         141.0599  142.9233  170.3167 C.ar    1  UNL1        0.0296
     15 C         142.5457  142.8750  170.1171 C.ar    1  UNL1        0.1399
     16 F         143.4418  143.7536  170.9386 F       1  UNL1       -0.2042
     17 C         143.1355  141.9479  169.0959 C.ar    1  UNL1        0.0276
     18 C         144.7670  141.3590  162.3529 C.3     1  UNL1        0.1472
     19 O         146.1329  141.7859  162.8025 O.3     1  UNL1       -0.3787
     20 H         146.3949  142.5879  162.3240 H       1  UNL1        0.2108
     21 C         144.0380  142.1543  161.3106 C.ar    1  UNL1        0.0053
     22 C         144.4422  142.0511  159.8698 C.ar    1  UNL1       -0.0007
     23 C         143.7132  142.8463  158.8276 C.ar    1  UNL1        0.0141
     24 C         142.5800  143.7446  159.2262 C.ar    1  UNL1        0.0462
     25 C         142.1758  143.8478  160.6670 C.ar    1  UNL1       -0.0085
     26 C         142.9048  143.0526  161.7092 C.ar    1  UNL1       -0.0049
     27 C         141.0426  144.7461  161.0656 C.3     1  UNL1        0.0372
     28 C         140.3136  145.5413  160.0235 C.3     1  UNL1        0.0901
     29 C         140.7178  145.4382  158.5826 C.2     1  UNL1        0.2264
     30 O         139.9888  146.2334  157.5404 O.2     1  UNL1       -0.2748
     31 N         141.8510  144.5398  158.1840 N.am    1  UNL1       -0.2842
     32 H         142.1163  144.4722  157.2383 H       1  UNL1        0.1548
@<TRIPOS>BOND
     1     1     2    1
     2     2    18    1
     3    18    19    1
     4    18    21    1
     5    21    22   ar
     6    22    23   ar
     7    23    24   ar
     8    24    25   ar
     9    25    26   ar
    10    25    27    1
    11    27    28    1
    12    28    29    1
    13    29    30    2
    14    29    31   am
    15     2     3    1
    16     3     4    1
    17     4     5    1
    18     5     6    1
    19     6     7    1
    20     6    11    1
    21    11    12   ar
    22    12    13   ar
    23    13    14   ar
    24    14    15   ar
    25    15    16    1
    26    15    17   ar
    27     6     8    1
    28     8     9    1
    29    26    21   ar
    30     9     3    1
    31    31    24    1
    32    17    11   ar
    33    19    20    1
    34    31    32    1
    35     7    10    1
@<TRIPOS>MOLECULE
*****
 32 35 0 0 0
SMALL
GASTEIGER

@<TRIPOS>ATOM
      1 C         139.3140  139.2392  161.8871 C.3     1  UNL1        0.0203
      2 C         139.0064  140.6445  162.3119 C.3     1  UNL1        0.0888
      3 N         139.6351  141.8004  161.5917 N.3     1  UNL1       -0.2713
      4 C         140.2917  142.9016  162.3703 C.3     1  UNL1        0.0749
      5 C         140.9205  144.0574  161.6501 C.3     1  UNL1        0.0485
      6 C         140.8926  144.1121  160.1514 C.3     1  UNL1        0.1097
      7 O         141.6283  145.3860  160.4448 O.3     1  UNL1       -0.3826
      8 C         140.2359  143.0109  159.3728 C.3     1  UNL1        0.0485
      9 C         139.6072  141.8550  160.0930 C.3     1  UNL1        0.0749
     10 H         141.7250  145.4898  161.4044 H       1  UNL1        0.2107
     11 C         141.1201  144.6092  158.7545 C.ar    1  UNL1        0.0040
     12 C         142.2069  144.0091  157.9126 C.ar    1  UNL1       -0.0019
     13 C         142.4345  144.5061  156.5158 C.ar    1  UNL1        0.0021
     14 C         141.5753  145.6033  155.9609 C.ar    1  UNL1        0.0296
     15 C         140.4885  146.2035  156.8027 C.ar    1  UNL1        0.1399
     16 F         139.6294  147.3006  156.2478 F       1  UNL1       -0.2042
     17 C         140.2610  145.7064  158.1996 C.ar    1  UNL1        0.0276
     18 C         138.0700  140.8940  163.4569 C.3     1  UNL1        0.1472
     19 O         136.6806  141.3944  163.1942 O.3     1  UNL1       -0.3787
     20 H         136.2110  141.5017  164.0361 H       1  UNL1        0.2108
     21 C         138.5231  140.6429  164.8647 C.ar    1  UNL1        0.0053
     22 C         138.1080  139.3879  165.5736 C.ar    1  UNL1       -0.0007
     23 C         138.5610  139.1370  166.9813 C.ar    1  UNL1        0.0141
     24 C         139.4292  140.1410  167.6801 C.ar    1  UNL1        0.0462
     25 C         139.8442  141.3960  166.9712 C.ar    1  UNL1       -0.0085
     26 C         139.3912  141.6470  165.5635 C.ar    1  UNL1       -0.0049
     27 C         140.7123  142.4000  167.6700 C.3     1  UNL1        0.0372
     28 C         141.1654  142.1490  169.0777 C.3     1  UNL1        0.0901
     29 C         140.7503  140.8940  169.7867 C.2     1  UNL1        0.2264
     30 O         141.2034  140.6430  171.1944 O.2     1  UNL1       -0.2748
     31 N         139.8822  139.8900  169.0879 N.am    1  UNL1       -0.2842
     32 H         139.6098  139.0662  169.5532 H       1  UNL1        0.1548
@<TRIPOS>BOND
     1     1     2    1
     2     2    18    1
     3    18    19    1
     4    18    21    1
     5    21    22   ar
     6    22    23   ar
     7    23    24   ar
     8    24    25   ar
     9    25    26   ar
    10    25    27    1
    11    27    28    1
    12    28    29    1
    13    29    30    2
    14    29    31   am
    15     2     3    1
    16     3     4    1
    17     4     5    1
    18     5     6    1
    19     6     7    1
    20     6    11    1
    21    11    12   ar
    22    12    13   ar
    23    13    14   ar
    24    14    15   ar
    25    15    16    1
    26    15    17   ar
    27     6     8    1
    28     8     9    1
    29    26    21   ar
    30     9     3    1
    31    31    24    1
    32    17    11   ar
    33    19    20    1
    34    31    32    1
    35     7    10    1
