@<TRIPOS>MOLECULE
*****
 34 37 0 0 0
SMALL
GASTEIGER

@<TRIPOS>ATOM
      1 N         138.4424  138.7617  167.2322 N.pl3   1  UNL1       -0.3414
      2 C         139.1032  138.6643  165.8892 C.ar    1  UNL1        0.1432
      3 N         138.4964  137.8112  164.8149 N.ar    1  UNL1       -0.2265
      4 C         139.1572  137.7138  163.4718 C.ar    1  UNL1        0.1193
      5 C         140.4248  138.4694  163.2030 C.ar    1  UNL1        0.1005
      6 N         141.0315  139.3225  164.2773 N.ar    1  UNL1       -0.2410
      7 C         140.3707  139.4199  165.6204 C.ar    1  UNL1        0.1123
      8 H         137.6104  138.2657  167.4086 H       1  UNL1        0.1438
      9 H         138.8406  139.3216  167.9373 H       1  UNL1        0.1438
     10 C         141.0856  138.3720  161.8599 C.ar    1  UNL1        0.0192
     11 C         142.5334  137.9925  161.7622 C.ar    1  UNL1        0.0017
     12 C         143.1942  137.8951  160.4191 C.ar    1  UNL1        0.0046
     13 C         142.4072  138.1772  159.1738 C.ar    1  UNL1        0.0536
     14 C         140.9593  138.5568  159.2715 C.ar    1  UNL1        0.0046
     15 C         140.2985  138.6542  160.6146 C.ar    1  UNL1        0.0017
     16 C         143.0679  138.0798  157.8307 C.2     1  UNL1        0.2491
     17 O         143.6229  139.3104  157.1768 O.2     1  UNL1       -0.2699
     18 N         143.1738  136.7518  157.1415 N.am    1  UNL1       -0.2735
     19 C         143.8039  136.5005  155.8036 C.3     1  UNL1        0.0964
     20 C         143.6877  135.0351  155.5044 C.3     1  UNL1        0.0525
     21 C         142.9858  134.3809  156.6574 C.3     1  UNL1        0.1320
     22 O         142.6589  132.9219  156.7775 O.3     1  UNL1       -0.3827
     23 C         142.6682  135.4417  157.6691 C.3     1  UNL1        0.1228
     24 H         142.9726  132.4542  155.9877 H       1  UNL1        0.2104
     25 C         140.9775  140.2730  166.6947 C.ar    1  UNL1        0.0204
     26 C         140.4936  141.6779  166.8996 C.ar    1  UNL1        0.0015
     27 C         141.1003  142.5310  167.9738 C.ar    1  UNL1        0.0039
     28 C         142.1911  141.9792  168.8432 C.ar    1  UNL1        0.0714
     29 C         142.6750  140.5743  168.6383 C.ar    1  UNL1        0.0039
     30 C         142.0682  139.7212  167.5640 C.ar    1  UNL1        0.0015
     31 C         142.7978  142.8323  169.9175 C.3     1  UNL1        0.4186
     32 F         143.4046  143.6854  170.9917 F       1  UNL1       -0.1659
     33 F         144.0081  141.9464  169.9374 F       1  UNL1       -0.1659
     34 F         141.5876  143.7182  169.8975 F       1  UNL1       -0.1659
@<TRIPOS>BOND
     1     1     2    1
     2     2     3   ar
     3     3     4   ar
     4     4     5   ar
     5     5    10    1
     6    10    11   ar
     7    11    12   ar
     8    12    13   ar
     9    13    16    1
    10    16    17    2
    11    16    18   am
    12    18    19    1
    13    19    20    1
    14    20    21    1
    15    21    22    1
    16    21    23    1
    17    13    14   ar
    18    14    15   ar
    19     5     6   ar
    20     6     7   ar
    21     7    25    1
    22    25    26   ar
    23    26    27   ar
    24    27    28   ar
    25    28    31    1
    26    31    32    1
    27    31    33    1
    28    31    34    1
    29    28    29   ar
    30    29    30   ar
    31     7     2   ar
    32    30    25   ar
    33    15    10   ar
    34    23    18    1
    35     1     8    1
    36     1     9    1
    37    22    24    1
@<TRIPOS>MOLECULE
*****
 34 37 0 0 0
SMALL
GASTEIGER

@<TRIPOS>ATOM
      1 N         138.4275  138.7767  167.3470 N.pl3   1  UNL1       -0.3414
      2 C         139.0443  138.7079  165.9814 C.ar    1  UNL1        0.1432
      3 N         138.4110  137.8656  164.9139 N.ar    1  UNL1       -0.2265
      4 C         139.0279  137.7968  163.5484 C.ar    1  UNL1        0.1193
      5 C         140.2779  138.5703  163.2502 C.ar    1  UNL1        0.1005
      6 N         140.9112  139.4126  164.3177 N.ar    1  UNL1       -0.2410
      7 C         140.2944  139.4814  165.6832 C.ar    1  UNL1        0.1123
      8 H         137.6070  138.2690  167.5426 H       1  UNL1        0.1438
      9 H         138.8431  139.3295  168.0476 H       1  UNL1        0.1438
     10 C         140.8948  138.5015  161.8847 C.ar    1  UNL1        0.0192
     11 C         142.2889  137.9740  161.7171 C.ar    1  UNL1        0.0017
     12 C         142.9057  137.9052  160.3515 C.ar    1  UNL1        0.0046
     13 C         142.1284  138.3640  159.1535 C.ar    1  UNL1        0.0536
     14 C         140.7343  138.8915  159.3211 C.ar    1  UNL1        0.0046
     15 C         140.1175  138.9603  160.6866 C.ar    1  UNL1        0.0017
     16 C         142.7452  138.2952  157.7879 C.2     1  UNL1        0.2491
     17 O         142.4866  137.1090  156.9070 O.2     1  UNL1       -0.2699
     18 N         143.6207  139.4126  157.3032 N.am    1  UNL1       -0.2735
     19 C         144.3026  139.4832  155.9691 C.3     1  UNL1        0.0964
     20 C         145.0713  140.7699  155.9089 C.3     1  UNL1        0.0525
     21 C         144.8645  141.4945  157.2059 C.3     1  UNL1        0.1320
     22 O         145.4512  142.8244  157.5762 O.3     1  UNL1       -0.3827
     23 C         143.9680  140.6557  158.0677 C.3     1  UNL1        0.1228
     24 H         145.9934  143.1541  156.8425 H       1  UNL1        0.2104
     25 C         140.9277  140.3238  166.7507 C.ar    1  UNL1        0.0204
     26 C         142.0413  139.7642  167.5855 C.ar    1  UNL1        0.0015
     27 C         142.6746  140.6065  168.6529 C.ar    1  UNL1        0.0039
     28 C         142.1943  142.0084  168.8856 C.ar    1  UNL1        0.0714
     29 C         141.0807  142.5680  168.0508 C.ar    1  UNL1        0.0039
     30 C         140.4474  141.7256  166.9834 C.ar    1  UNL1        0.0015
     31 C         142.8277  142.8507  169.9530 C.3     1  UNL1        0.4186
     32 F         143.4610  143.6930  171.0204 F       1  UNL1       -0.1659
     33 F         141.6001  143.7113  170.0022 F       1  UNL1       -0.1659
     34 F         144.0552  141.9901  169.9038 F       1  UNL1       -0.1659
@<TRIPOS>BOND
     1     1     2    1
     2     2     3   ar
     3     3     4   ar
     4     4     5   ar
     5     5    10    1
     6    10    11   ar
     7    11    12   ar
     8    12    13   ar
     9    13    16    1
    10    16    17    2
    11    16    18   am
    12    18    19    1
    13    19    20    1
    14    20    21    1
    15    21    22    1
    16    21    23    1
    17    13    14   ar
    18    14    15   ar
    19     5     6   ar
    20     6     7   ar
    21     7    25    1
    22    25    26   ar
    23    26    27   ar
    24    27    28   ar
    25    28    31    1
    26    31    32    1
    27    31    33    1
    28    31    34    1
    29    28    29   ar
    30    29    30   ar
    31     7     2   ar
    32    30    25   ar
    33    15    10   ar
    34    23    18    1
    35     1     8    1
    36     1     9    1
    37    22    24    1
@<TRIPOS>MOLECULE
*****
 34 37 0 0 0
SMALL
GASTEIGER

@<TRIPOS>ATOM
      1 N         136.9334  142.6802  164.3694 N.pl3   1  UNL1       -0.3414
      2 C         137.8707  142.1351  163.3329 C.ar    1  UNL1        0.1432
      3 N         137.6429  142.4387  161.8818 N.ar    1  UNL1       -0.2265
      4 C         138.5802  141.8935  160.8453 C.ar    1  UNL1        0.1193
      5 C         139.7453  141.0447  161.2600 C.ar    1  UNL1        0.1005
      6 N         139.9731  140.7411  162.7111 N.ar    1  UNL1       -0.2410
      7 C         139.0358  141.2863  163.7476 C.ar    1  UNL1        0.1123
      8 H         136.1687  143.2373  164.0972 H       1  UNL1        0.1438
      9 H         137.0830  142.4810  165.3218 H       1  UNL1        0.1438
     10 C         140.6826  140.4996  160.2235 C.ar    1  UNL1        0.0192
     11 C         141.7978  139.5821  160.6291 C.ar    1  UNL1        0.0017
     12 C         142.7351  139.0369  159.5927 C.ar    1  UNL1        0.0046
     13 C         142.5572  139.4092  158.1506 C.ar    1  UNL1        0.0536
     14 C         141.4420  140.3267  157.7449 C.ar    1  UNL1        0.0046
     15 C         140.5047  140.8719  158.7814 C.ar    1  UNL1        0.0017
     16 C         143.4945  138.8641  157.1141 C.2     1  UNL1        0.2491
     17 O         144.7370  139.6228  156.7532 O.2     1  UNL1       -0.2699
     18 N         143.1892  137.5601  156.4385 N.am    1  UNL1       -0.2735
     19 C         144.0279  136.8934  155.3887 C.3     1  UNL1        0.0964
     20 C         143.3487  135.6151  154.9954 C.3     1  UNL1        0.0525
     21 C         142.0901  135.4918  155.8022 C.3     1  UNL1        0.1320
     22 O         141.1034  134.3644  155.7298 O.3     1  UNL1       -0.3827
     23 C         141.9915  136.6938  156.6940 C.3     1  UNL1        0.1228
     24 H         141.4021  133.7149  155.0742 H       1  UNL1        0.2104
     25 C         139.2637  140.9826  165.1988 C.ar    1  UNL1        0.0204
     26 C         138.6341  139.7708  165.8193 C.ar    1  UNL1        0.0015
     27 C         138.8620  139.4671  167.2704 C.ar    1  UNL1        0.0039
     28 C         139.7194  140.3753  168.1011 C.ar    1  UNL1        0.0714
     29 C         140.3490  141.5872  167.4806 C.ar    1  UNL1        0.0039
     30 C         140.1211  141.8908  166.0294 C.ar    1  UNL1        0.0015
     31 C         139.9473  140.0716  169.5523 C.3     1  UNL1        0.4186
     32 F         140.1751  139.7679  171.0034 F       1  UNL1       -0.1659
     33 F         138.6268  140.6976  169.8906 F       1  UNL1       -0.1659
     34 F         141.2677  139.4456  169.2139 F       1  UNL1       -0.1659
@<TRIPOS>BOND
     1     1     2    1
     2     2     3   ar
     3     3     4   ar
     4     4     5   ar
     5     5    10    1
     6    10    11   ar
     7    11    12   ar
     8    12    13   ar
     9    13    16    1
    10    16    17    2
    11    16    18   am
    12    18    19    1
    13    19    20    1
    14    20    21    1
    15    21    22    1
    16    21    23    1
    17    13    14   ar
    18    14    15   ar
    19     5     6   ar
    20     6     7   ar
    21     7    25    1
    22    25    26   ar
    23    26    27   ar
    24    27    28   ar
    25    28    31    1
    26    31    32    1
    27    31    33    1
    28    31    34    1
    29    28    29   ar
    30    29    30   ar
    31     7     2   ar
    32    30    25   ar
    33    15    10   ar
    34    23    18    1
    35     1     8    1
    36     1     9    1
    37    22    24    1
@<TRIPOS>MOLECULE
*****
 34 37 0 0 0
SMALL
GASTEIGER

@<TRIPOS>ATOM
      1 N         138.4095  144.5160  165.1327 N.pl3   1  UNL1       -0.3414
      2 C         139.1713  143.8443  164.0289 C.ar    1  UNL1        0.1432
      3 N         139.1814  144.4418  162.6530 N.ar    1  UNL1       -0.2265
      4 C         139.9432  143.7701  161.5492 C.ar    1  UNL1        0.1193
      5 C         140.6950  142.5010  161.8212 C.ar    1  UNL1        0.1005
      6 N         140.6850  141.9035  163.1970 N.ar    1  UNL1       -0.2410
      7 C         139.9231  142.5752  164.3008 C.ar    1  UNL1        0.1123
      8 H         137.9161  145.3490  164.9542 H       1  UNL1        0.1438
      9 H         138.4029  144.1239  166.0357 H       1  UNL1        0.1438
     10 C         141.4569  141.8293  160.7174 C.ar    1  UNL1        0.0192
     11 C         140.9445  141.8880  159.3088 C.ar    1  UNL1        0.0017
     12 C         141.7064  141.2163  158.2050 C.ar    1  UNL1        0.0046
     13 C         142.9805  140.4859  158.5097 C.ar    1  UNL1        0.0536
     14 C         143.4929  140.4271  159.9182 C.ar    1  UNL1        0.0046
     15 C         142.7310  141.0988  161.0221 C.ar    1  UNL1        0.0017
     16 C         143.7424  139.8142  157.4059 C.2     1  UNL1        0.2491
     17 O         143.4395  138.3904  157.0440 O.2     1  UNL1       -0.2699
     18 N         144.8071  140.5663  156.6639 N.am    1  UNL1       -0.2735
     19 C         145.6473  140.0296  155.5432 C.3     1  UNL1        0.0964
     20 C         146.5782  141.1189  155.0990 C.3     1  UNL1        0.0525
     21 C         146.3132  142.3287  155.9452 C.3     1  UNL1        0.1320
     22 O         147.0188  143.6483  155.8423 O.3     1  UNL1       -0.3827
     23 C         145.2187  141.9873  156.9124 C.3     1  UNL1        0.1228
     24 H         147.6832  143.6056  155.1369 H       1  UNL1        0.2104
     25 C         139.9131  141.9776  165.6767 C.ar    1  UNL1        0.0204
     26 C         139.2408  140.6583  165.9165 C.ar    1  UNL1        0.0015
     27 C         139.2307  140.0608  167.2923 C.ar    1  UNL1        0.0039
     28 C         139.8930  140.7825  168.4283 C.ar    1  UNL1        0.0714
     29 C         140.5653  142.1018  168.1885 C.ar    1  UNL1        0.0039
     30 C         140.5753  142.6994  166.8127 C.ar    1  UNL1        0.0015
     31 C         139.8829  140.1850  169.8041 C.3     1  UNL1        0.4186
     32 F         139.8729  139.5874  171.1799 F       1  UNL1       -0.1659
     33 F         138.5778  140.8664  170.0905 F       1  UNL1       -0.1659
     34 F         141.1881  139.5035  169.5177 F       1  UNL1       -0.1659
@<TRIPOS>BOND
     1     1     2    1
     2     2     3   ar
     3     3     4   ar
     4     4     5   ar
     5     5    10    1
     6    10    11   ar
     7    11    12   ar
     8    12    13   ar
     9    13    16    1
    10    16    17    2
    11    16    18   am
    12    18    19    1
    13    19    20    1
    14    20    21    1
    15    21    22    1
    16    21    23    1
    17    13    14   ar
    18    14    15   ar
    19     5     6   ar
    20     6     7   ar
    21     7    25    1
    22    25    26   ar
    23    26    27   ar
    24    27    28   ar
    25    28    31    1
    26    31    32    1
    27    31    33    1
    28    31    34    1
    29    28    29   ar
    30    29    30   ar
    31     7     2   ar
    32    30    25   ar
    33    15    10   ar
    34    23    18    1
    35     1     8    1
    36     1     9    1
    37    22    24    1
@<TRIPOS>MOLECULE
*****
 34 37 0 0 0
SMALL
GASTEIGER

@<TRIPOS>ATOM
      1 N         144.0226  145.0063  164.4314 N.pl3   1  UNL1       -0.3414
      2 C         143.8053  143.9035  163.4381 C.ar    1  UNL1        0.1432
      3 N         144.4588  143.9692  162.0896 N.ar    1  UNL1       -0.2265
      4 C         144.2415  142.8664  161.0963 C.ar    1  UNL1        0.1193
      5 C         143.3708  141.6978  161.4516 C.ar    1  UNL1        0.1005
      6 N         142.7173  141.6321  162.8001 N.ar    1  UNL1       -0.2410
      7 C         142.9346  142.7349  163.7934 C.ar    1  UNL1        0.1123
      8 H         144.5941  145.7732  164.1982 H       1  UNL1        0.1438
      9 H         143.5937  144.9631  165.3165 H       1  UNL1        0.1438
     10 C         143.1535  140.5950  160.4583 C.ar    1  UNL1        0.0192
     11 C         142.6713  139.2524  160.9219 C.ar    1  UNL1        0.0017
     12 C         142.4540  138.1496  159.9286 C.ar    1  UNL1        0.0046
     13 C         142.7190  138.3894  158.4718 C.ar    1  UNL1        0.0536
     14 C         143.2012  139.7320  158.0083 C.ar    1  UNL1        0.0046
     15 C         143.4184  140.8348  159.0015 C.ar    1  UNL1        0.0017
     16 C         142.5017  137.2866  157.4785 C.2     1  UNL1        0.2491
     17 O         143.5210  136.1956  157.3342 O.2     1  UNL1       -0.2699
     18 N         141.2651  137.2747  156.6296 N.am    1  UNL1       -0.2735
     19 C         140.9129  136.2430  155.5992 C.3     1  UNL1        0.0964
     20 C         139.5937  136.6231  154.9947 C.3     1  UNL1        0.0525
     21 C         139.1306  137.8898  155.6515 C.3     1  UNL1        0.1320
     22 O         137.8581  138.6246  155.3508 O.3     1  UNL1       -0.3827
     23 C         140.1636  138.2924  156.6619 C.3     1  UNL1        0.1228
     24 H         137.3691  138.1540  154.6578 H       1  UNL1        0.2104
     25 C         142.2810  142.6692  165.1420 C.ar    1  UNL1        0.0204
     26 C         143.0665  142.2096  166.3344 C.ar    1  UNL1        0.0015
     27 C         142.4130  142.1438  167.6830 C.ar    1  UNL1        0.0039
     28 C         140.9740  142.5376  167.8391 C.ar    1  UNL1        0.0714
     29 C         140.1886  142.9972  166.6467 C.ar    1  UNL1        0.0039
     30 C         140.8421  143.0629  165.2981 C.ar    1  UNL1        0.0015
     31 C         140.3206  142.4719  169.1877 C.3     1  UNL1        0.4186
     32 F         139.6671  142.4061  170.5362 F       1  UNL1       -0.1659
     33 F         139.7681  141.1179  168.8539 F       1  UNL1       -0.1659
     34 F         140.8730  143.8258  169.5214 F       1  UNL1       -0.1659
@<TRIPOS>BOND
     1     1     2    1
     2     2     3   ar
     3     3     4   ar
     4     4     5   ar
     5     5    10    1
     6    10    11   ar
     7    11    12   ar
     8    12    13   ar
     9    13    16    1
    10    16    17    2
    11    16    18   am
    12    18    19    1
    13    19    20    1
    14    20    21    1
    15    21    22    1
    16    21    23    1
    17    13    14   ar
    18    14    15   ar
    19     5     6   ar
    20     6     7   ar
    21     7    25    1
    22    25    26   ar
    23    26    27   ar
    24    27    28   ar
    25    28    31    1
    26    31    32    1
    27    31    33    1
    28    31    34    1
    29    28    29   ar
    30    29    30   ar
    31     7     2   ar
    32    30    25   ar
    33    15    10   ar
    34    23    18    1
    35     1     8    1
    36     1     9    1
    37    22    24    1
@<TRIPOS>MOLECULE
*****
 34 37 0 0 0
SMALL
GASTEIGER

@<TRIPOS>ATOM
      1 N         143.8432  144.7535  164.1544 N.pl3   1  UNL1       -0.3414
      2 C         143.3302  143.7950  163.1209 C.ar    1  UNL1        0.1432
      3 N         143.8414  143.8663  161.7125 N.ar    1  UNL1       -0.2265
      4 C         143.3285  142.9078  160.6790 C.ar    1  UNL1        0.1193
      5 C         142.3044  141.8779  161.0538 C.ar    1  UNL1        0.1005
      6 N         141.7932  141.8066  162.4622 N.ar    1  UNL1       -0.2410
      7 C         142.3061  142.7651  163.4957 C.ar    1  UNL1        0.1123
      8 H         144.5153  145.4294  163.9084 H       1  UNL1        0.1438
      9 H         143.5077  144.7066  165.0788 H       1  UNL1        0.1438
     10 C         141.7915  140.9194  160.0203 C.ar    1  UNL1        0.0192
     11 C         140.8184  139.8464  160.4098 C.ar    1  UNL1        0.0017
     12 C         140.3055  138.8879  159.3763 C.ar    1  UNL1        0.0046
     13 C         140.7656  139.0024  157.9532 C.ar    1  UNL1        0.0536
     14 C         141.7386  140.0755  157.5637 C.ar    1  UNL1        0.0046
     15 C         142.2515  141.0340  158.5972 C.ar    1  UNL1        0.0017
     16 C         140.2527  138.0439  156.9197 C.2     1  UNL1        0.2491
     17 O         138.8948  138.2479  156.3159 O.2     1  UNL1       -0.2699
     18 N         141.0976  136.8815  156.4899 N.am    1  UNL1       -0.2735
     19 C         140.7204  135.8458  155.4726 C.3     1  UNL1        0.0964
     20 C         141.8578  134.8747  155.3559 C.3     1  UNL1        0.0525
     21 C         142.9380  135.3104  156.3013 C.3     1  UNL1        0.1320
     22 O         144.2564  134.6260  156.5092 O.3     1  UNL1       -0.3827
     23 C         142.4681  136.5506  157.0021 C.3     1  UNL1        0.1228
     24 H         144.3106  133.8471  155.9338 H       1  UNL1        0.2104
     25 C         141.7949  142.6937  164.9042 C.ar    1  UNL1        0.0204
     26 C         142.6085  142.0114  165.9637 C.ar    1  UNL1        0.0015
     27 C         142.0974  141.9400  167.3720 C.ar    1  UNL1        0.0039
     28 C         140.7725  142.5509  167.7210 C.ar    1  UNL1        0.0714
     29 C         139.9589  143.2331  166.6615 C.ar    1  UNL1        0.0039
     30 C         140.4701  143.3045  165.2530 C.ar    1  UNL1        0.0015
     31 C         140.2614  142.4795  169.1293 C.3     1  UNL1        0.4186
     32 F         139.7502  142.4080  170.5377 F       1  UNL1       -0.1659
     33 F         139.8474  141.0550  168.9069 F       1  UNL1       -0.1659
     34 F         140.6753  143.9039  169.3518 F       1  UNL1       -0.1659
@<TRIPOS>BOND
     1     1     2    1
     2     2     3   ar
     3     3     4   ar
     4     4     5   ar
     5     5    10    1
     6    10    11   ar
     7    11    12   ar
     8    12    13   ar
     9    13    16    1
    10    16    17    2
    11    16    18   am
    12    18    19    1
    13    19    20    1
    14    20    21    1
    15    21    22    1
    16    21    23    1
    17    13    14   ar
    18    14    15   ar
    19     5     6   ar
    20     6     7   ar
    21     7    25    1
    22    25    26   ar
    23    26    27   ar
    24    27    28   ar
    25    28    31    1
    26    31    32    1
    27    31    33    1
    28    31    34    1
    29    28    29   ar
    30    29    30   ar
    31     7     2   ar
    32    30    25   ar
    33    15    10   ar
    34    23    18    1
    35     1     8    1
    36     1     9    1
    37    22    24    1
@<TRIPOS>MOLECULE
*****
 34 37 0 0 0
SMALL
GASTEIGER

@<TRIPOS>ATOM
      1 N         138.8562  137.4546  165.0924 N.pl3   1  UNL1       -0.3414
      2 C         139.1857  138.5288  164.0986 C.ar    1  UNL1        0.1432
      3 N         138.5338  138.5263  162.7477 N.ar    1  UNL1       -0.2265
      4 C         138.8633  139.6004  161.7539 C.ar    1  UNL1        0.1193
      5 C         139.8446  140.6771  162.1110 C.ar    1  UNL1        0.1005
      6 N         140.4965  140.6797  163.4619 N.ar    1  UNL1       -0.2410
      7 C         140.1670  139.6055  164.4557 C.ar    1  UNL1        0.1123
      8 H         138.2120  136.7480  164.8580 H       1  UNL1        0.1438
      9 H         139.2840  137.4563  165.9790 H       1  UNL1        0.1438
     10 C         140.1741  141.7513  161.1172 C.ar    1  UNL1        0.0192
     11 C         141.0481  141.4401  159.9386 C.ar    1  UNL1        0.0017
     12 C         141.3776  142.5143  158.9448 C.ar    1  UNL1        0.0046
     13 C         140.8331  143.8996  159.1297 C.ar    1  UNL1        0.0536
     14 C         139.9592  144.2109  160.3083 C.ar    1  UNL1        0.0046
     15 C         139.6297  143.1367  161.3021 C.ar    1  UNL1        0.0017
     16 C         141.1626  144.9738  158.1359 C.2     1  UNL1        0.2491
     17 O         142.4313  145.7617  158.2761 O.2     1  UNL1       -0.2699
     18 N         140.2235  145.2601  157.0019 N.am    1  UNL1       -0.2735
     19 C         140.4179  146.2981  155.9367 C.3     1  UNL1        0.0964
     20 C         139.2395  146.2381  155.0104 C.3     1  UNL1        0.0525
     21 C         138.3168  145.1630  155.5032 C.3     1  UNL1        0.1320
     22 O         137.0147  144.7627  154.8755 O.3     1  UNL1       -0.3827
     23 C         138.9249  144.5586  156.7340 C.3     1  UNL1        0.1228
     24 H         136.8526  145.3093  154.0907 H       1  UNL1        0.2104
     25 C         140.8190  139.6081  165.8067 C.ar    1  UNL1        0.0204
     26 C         142.2037  139.0556  165.9723 C.ar    1  UNL1        0.0015
     27 C         142.8556  139.0582  167.3231 C.ar    1  UNL1        0.0039
     28 C         142.1228  139.6132  168.5085 C.ar    1  UNL1        0.0714
     29 C         140.7381  140.1657  168.3430 C.ar    1  UNL1        0.0039
     30 C         140.0862  140.1631  166.9920 C.ar    1  UNL1        0.0015
     31 C         142.7748  139.6158  169.8594 C.3     1  UNL1        0.4186
     32 F         143.4267  139.6183  171.2103 F       1  UNL1       -0.1659
     33 F         142.8011  141.1154  169.8439 F       1  UNL1       -0.1659
     34 F         142.7485  138.1161  169.8749 F       1  UNL1       -0.1659
@<TRIPOS>BOND
     1     1     2    1
     2     2     3   ar
     3     3     4   ar
     4     4     5   ar
     5     5    10    1
     6    10    11   ar
     7    11    12   ar
     8    12    13   ar
     9    13    16    1
    10    16    17    2
    11    16    18   am
    12    18    19    1
    13    19    20    1
    14    20    21    1
    15    21    22    1
    16    21    23    1
    17    13    14   ar
    18    14    15   ar
    19     5     6   ar
    20     6     7   ar
    21     7    25    1
    22    25    26   ar
    23    26    27   ar
    24    27    28   ar
    25    28    31    1
    26    31    32    1
    27    31    33    1
    28    31    34    1
    29    28    29   ar
    30    29    30   ar
    31     7     2   ar
    32    30    25   ar
    33    15    10   ar
    34    23    18    1
    35     1     8    1
    36     1     9    1
    37    22    24    1
@<TRIPOS>MOLECULE
*****
 34 37 0 0 0
SMALL
GASTEIGER

@<TRIPOS>ATOM
      1 N         146.0468  141.7093  163.9923 N.pl3   1  UNL1       -0.3414
      2 C         144.8862  141.7127  163.0421 C.ar    1  UNL1        0.1432
      3 N         145.1139  141.9640  161.5809 N.ar    1  UNL1       -0.2265
      4 C         143.9533  141.9674  160.6307 C.ar    1  UNL1        0.1193
      5 C         142.5650  141.7196  161.1416 C.ar    1  UNL1        0.1005
      6 N         142.3373  141.4683  162.6027 N.ar    1  UNL1       -0.2410
      7 C         143.4979  141.4649  163.5530 C.ar    1  UNL1        0.1123
      8 H         146.9581  141.8720  163.6570 H       1  UNL1        0.1438
      9 H         145.8973  141.5444  164.9513 H       1  UNL1        0.1438
     10 C         141.4044  141.7230  160.1913 C.ar    1  UNL1        0.0192
     11 C         141.5439  141.0985  158.8347 C.ar    1  UNL1        0.0017
     12 C         140.3833  141.1019  157.8845 C.ar    1  UNL1        0.0046
     13 C         139.0832  141.7299  158.2908 C.ar    1  UNL1        0.0536
     14 C         138.9436  142.3544  159.6474 C.ar    1  UNL1        0.0046
     15 C         140.1042  142.3510  160.5977 C.ar    1  UNL1        0.0017
     16 C         137.9226  141.7333  157.3406 C.2     1  UNL1        0.2491
     17 O         136.9032  140.6344  157.3977 O.2     1  UNL1       -0.2699
     18 N         137.7813  142.8357  156.3332 N.am    1  UNL1       -0.2735
     19 C         136.6800  142.9719  155.3239 C.3     1  UNL1        0.0964
     20 C         136.9346  144.2159  154.5251 C.3     1  UNL1        0.0525
     21 C         138.1933  144.8484  155.0408 C.3     1  UNL1        0.1320
     22 O         138.8187  146.1119  154.5289 O.3     1  UNL1       -0.3827
     23 C         138.7165  143.9954  156.1582 C.3     1  UNL1        0.1228
     24 H         138.2821  146.4674  153.8032 H       1  UNL1        0.2104
     25 C         143.2701  141.2136  165.0142 C.ar    1  UNL1        0.0204
     26 C         143.1768  142.3675  165.9680 C.ar    1  UNL1        0.0015
     27 C         142.9491  142.1163  167.4291 C.ar    1  UNL1        0.0039
     28 C         142.8145  140.7111  167.9365 C.ar    1  UNL1        0.0714
     29 C         142.9078  139.5572  166.9827 C.ar    1  UNL1        0.0039
     30 C         143.1356  139.8085  165.5215 C.ar    1  UNL1        0.0015
     31 C         142.5867  140.4599  169.3976 C.3     1  UNL1        0.4186
     32 F         142.3590  140.2086  170.8588 F       1  UNL1       -0.1659
     33 F         143.7148  141.3897  169.7334 F       1  UNL1       -0.1659
     34 F         141.4586  139.5300  169.0619 F       1  UNL1       -0.1659
@<TRIPOS>BOND
     1     1     2    1
     2     2     3   ar
     3     3     4   ar
     4     4     5   ar
     5     5    10    1
     6    10    11   ar
     7    11    12   ar
     8    12    13   ar
     9    13    16    1
    10    16    17    2
    11    16    18   am
    12    18    19    1
    13    19    20    1
    14    20    21    1
    15    21    22    1
    16    21    23    1
    17    13    14   ar
    18    14    15   ar
    19     5     6   ar
    20     6     7   ar
    21     7    25    1
    22    25    26   ar
    23    26    27   ar
    24    27    28   ar
    25    28    31    1
    26    31    32    1
    27    31    33    1
    28    31    34    1
    29    28    29   ar
    30    29    30   ar
    31     7     2   ar
    32    30    25   ar
    33    15    10   ar
    34    23    18    1
    35     1     8    1
    36     1     9    1
    37    22    24    1
@<TRIPOS>MOLECULE
*****
 34 37 0 0 0
SMALL
GASTEIGER

@<TRIPOS>ATOM
      1 N         137.8727  144.3243  165.0249 N.pl3   1  UNL1       -0.3414
      2 C         138.9141  144.0040  163.9939 C.ar    1  UNL1        0.1432
      3 N         138.9045  144.7137  162.6725 N.ar    1  UNL1       -0.2265
      4 C         139.9459  144.3934  161.6416 C.ar    1  UNL1        0.1193
      5 C         140.9969  143.3634  161.9320 C.ar    1  UNL1        0.1005
      6 N         141.0065  142.6537  163.2535 N.ar    1  UNL1       -0.2410
      7 C         139.9651  142.9740  164.2844 C.ar    1  UNL1        0.1123
      8 H         137.1829  145.0004  164.8342 H       1  UNL1        0.1438
      9 H         137.8790  143.8585  165.8922 H       1  UNL1        0.1438
     10 C         142.0383  143.0431  160.9011 C.ar    1  UNL1        0.0192
     11 C         143.1805  142.1340  161.2460 C.ar    1  UNL1        0.0017
     12 C         144.2219  141.8137  160.2151 C.ar    1  UNL1        0.0046
     13 C         144.1212  142.4025  158.8392 C.ar    1  UNL1        0.0536
     14 C         142.9790  143.3115  158.4942 C.ar    1  UNL1        0.0046
     15 C         141.9376  143.6318  159.5252 C.ar    1  UNL1        0.0017
     16 C         145.1626  142.0822  157.8082 C.2     1  UNL1        0.2491
     17 O         146.4486  142.8536  157.7764 O.2     1  UNL1       -0.2699
     18 N         144.9180  140.9904  156.8091 N.am    1  UNL1       -0.2735
     19 C         145.8613  140.5594  155.7254 C.3     1  UNL1        0.0964
     20 C         145.2134  139.4405  154.9648 C.3     1  UNL1        0.0525
     21 C         143.8696  139.1801  155.5785 C.3     1  UNL1        0.1320
     22 O         142.8820  138.1438  155.1309 O.3     1  UNL1       -0.3827
     23 C         143.6871  140.1379  156.7183 C.3     1  UNL1        0.1228
     24 H         143.2442  137.6576  154.3737 H       1  UNL1        0.2104
     25 C         139.9748  142.2642  165.6059 C.ar    1  UNL1        0.0204
     26 C         140.6140  142.9100  166.7994 C.ar    1  UNL1        0.0015
     27 C         140.6237  142.2003  168.1208 C.ar    1  UNL1        0.0039
     28 C         139.9941  140.8448  168.2488 C.ar    1  UNL1        0.0714
     29 C         139.3548  140.1991  167.0553 C.ar    1  UNL1        0.0039
     30 C         139.3451  140.9089  165.7338 C.ar    1  UNL1        0.0015
     31 C         140.0037  140.1351  169.5702 C.3     1  UNL1        0.4186
     32 F         140.0134  139.4254  170.8916 F       1  UNL1       -0.1659
     33 F         141.4141  139.6896  169.3206 F       1  UNL1       -0.1659
     34 F         138.5934  140.5806  169.8198 F       1  UNL1       -0.1659
@<TRIPOS>BOND
     1     1     2    1
     2     2     3   ar
     3     3     4   ar
     4     4     5   ar
     5     5    10    1
     6    10    11   ar
     7    11    12   ar
     8    12    13   ar
     9    13    16    1
    10    16    17    2
    11    16    18   am
    12    18    19    1
    13    19    20    1
    14    20    21    1
    15    21    22    1
    16    21    23    1
    17    13    14   ar
    18    14    15   ar
    19     5     6   ar
    20     6     7   ar
    21     7    25    1
    22    25    26   ar
    23    26    27   ar
    24    27    28   ar
    25    28    31    1
    26    31    32    1
    27    31    33    1
    28    31    34    1
    29    28    29   ar
    30    29    30   ar
    31     7     2   ar
    32    30    25   ar
    33    15    10   ar
    34    23    18    1
    35     1     8    1
    36     1     9    1
    37    22    24    1
