@<TRIPOS>MOLECULE
*****
 40 44 0 0 0
SMALL
GASTEIGER

@<TRIPOS>ATOM
      1 C         141.1471  139.7182  158.1092 C.ar    1  UNL1        0.1383
      2 C         141.8820  140.7206  157.2695 C.ar    1  UNL1        0.0369
      3 C         143.3256  141.0181  157.5482 C.ar    1  UNL1        0.0028
      4 C         144.0341  140.3132  158.6667 C.ar    1  UNL1       -0.0041
      5 C         143.2992  139.3108  159.5064 C.ar    1  UNL1       -0.0186
      6 C         141.8557  139.0134  159.2276 C.ar    1  UNL1        0.0326
      7 O         139.7035  139.4208  157.8304 O.3     1  UNL1       -0.4751
      8 C         138.6350  140.0005  158.7092 C.3     1  UNL1        0.2118
      9 C         138.8966  141.2642  159.4739 C.3     1  UNL1        0.0960
     10 C         141.6726  142.5552  160.6038 C.3     1  UNL1        0.0738
     11 C         140.6646  141.7896  161.4086 C.ar    1  UNL1        0.1387
     12 O         140.7555  141.4830  162.8741 O.2     1  UNL1       -0.4392
     13 C         139.5358  140.7001  163.2605 C.ar    1  UNL1        0.2289
     14 N         138.6910  140.5228  162.0338 N.ar    1  UNL1       -0.2129
     15 C         139.3886  141.1962  160.8893 C.ar    1  UNL1        0.0960
     16 C         139.2169  140.1849  164.6327 C.ar    1  UNL1        0.0535
     17 C         138.5263  138.8634  164.7959 C.ar    1  UNL1        0.0046
     18 C         138.2074  138.3483  166.1681 C.ar    1  UNL1        0.0002
     19 C         138.5791  139.1547  167.3771 C.ar    1  UNL1        0.0000
     20 C         139.2697  140.4762  167.2139 C.ar    1  UNL1        0.0002
     21 C         139.5886  140.9913  165.8417 C.ar    1  UNL1        0.0046
     22 C         144.0078  138.6059  160.6248 C.3     1  UNL1        0.0376
     23 C         143.7533  139.0102  162.0467 C.3     1  UNL1        0.1052
     24 C         144.3845  139.9776  163.0036 C.2     1  UNL1        0.2315
     25 O         145.5317  140.9415  162.9349 O.2     1  UNL1       -0.2745
     26 N         143.3933  139.5819  164.0577 N.am    1  UNL1       -0.2546
     27 C         142.7621  138.6145  163.1008 C.3     1  UNL1        0.1249
     28 C         143.1388  139.9862  165.4796 C.ar    1  UNL1        0.0541
     29 C         142.9417  138.9374  166.5336 C.ar    1  UNL1        0.0146
     30 C         142.6872  139.3416  167.9555 C.ar    1  UNL1       -0.0030
     31 C         142.6298  140.7947  168.3233 C.ar    1  UNL1       -0.0227
     32 C         142.8268  141.8435  167.2692 C.ar    1  UNL1       -0.0030
     33 C         143.0813  141.4392  165.8473 C.ar    1  UNL1        0.0146
     34 C         142.3752  141.1990  169.7452 C.3     1  UNL1        0.0189
     35 C         143.0527  142.5132  169.4928 C.3     1  UNL1        0.0044
     36 C         141.6978  139.8847  169.9976 C.3     1  UNL1        0.0044
     37 C         142.1207  141.6032  171.1671 C.3     1  UNL1        0.0044
     38 C         141.6148  137.6506  163.1695 C.2     1  UNL1        0.0692
     39 O         140.6884  137.5026  161.9990 O.co2   1  UNL1       -0.5475
     40 O         141.3940  136.8347  164.4086 O.co2   1  UNL1       -0.5475
@<TRIPOS>UNITY_ATOM_ATTR
39 1
charge -1
@<TRIPOS>BOND
     1    10    11    1
     2    11    12   ar
     3    12    13   ar
     4    13    16    1
     5    16    17   ar
     6    17    18   ar
     7    18    19   ar
     8    19    20   ar
     9    20    21   ar
    10    13    14   ar
    11    14    15   ar
    12    15     9    1
    13     9     8    1
    14     8     7    1
    15     7     1    1
    16     1     2   ar
    17     2     3   ar
    18     3     4   ar
    19     4     5   ar
    20     5    22    1
    21    23    22    1
    22    23    24    1
    23    24    25    2
    24    24    26   am
    25    26    28    1
    26    28    29   ar
    27    29    30   ar
    28    30    31   ar
    29    31    34    1
    30    34    35    1
    31    34    36    1
    32    34    37    1
    33    31    32   ar
    34    32    33   ar
    35    26    27    1
    36    27    38    1
    37    38    39   ar
    38    38    40   ar
    39     5     6   ar
    40    15    11   ar
    41     6     1   ar
    42    21    16   ar
    43    27    23    1
    44    33    28   ar
@<TRIPOS>MOLECULE
*****
 40 44 0 0 0
SMALL
GASTEIGER

@<TRIPOS>ATOM
      1 C         139.6888  143.4226  157.2653 C.ar    1  UNL1        0.1383
      2 C         140.8045  143.7897  156.3323 C.ar    1  UNL1        0.0369
      3 C         141.8445  144.7822  156.7607 C.ar    1  UNL1        0.0028
      4 C         141.7687  145.4074  158.1221 C.ar    1  UNL1       -0.0041
      5 C         140.6530  145.0403  159.0550 C.ar    1  UNL1       -0.0186
      6 C         139.6131  144.0478  158.6265 C.ar    1  UNL1        0.0326
      7 O         138.6488  142.4302  156.8369 O.3     1  UNL1       -0.4751
      8 C         138.5493  141.1025  157.5279 C.3     1  UNL1        0.2118
      9 C         139.7929  140.4019  157.9890 C.3     1  UNL1        0.0960
     10 C         142.5027  141.7413  159.2191 C.3     1  UNL1        0.0738
     11 C         141.4255  141.0522  160.0032 C.ar    1  UNL1        0.1387
     12 O         141.4046  140.8578  161.4904 O.2     1  UNL1       -0.4392
     13 C         140.1462  140.1220  161.8441 C.ar    1  UNL1        0.2289
     14 N         139.3893  139.8617  160.5755 N.ar    1  UNL1       -0.2129
     15 C         140.1799  140.4366  159.4378 C.ar    1  UNL1        0.0960
     16 C         139.7196  139.7175  163.2242 C.ar    1  UNL1        0.0535
     17 C         138.5490  140.3924  163.8753 C.ar    1  UNL1        0.0046
     18 C         138.1225  139.9880  165.2553 C.ar    1  UNL1        0.0002
     19 C         138.8666  138.9086  165.9842 C.ar    1  UNL1        0.0000
     20 C         140.0372  138.2336  165.3330 C.ar    1  UNL1        0.0002
     21 C         140.4637  138.6381  163.9530 C.ar    1  UNL1        0.0046
     22 C         140.5773  145.6656  160.4163 C.3     1  UNL1        0.0376
     23 C         140.7901  144.8253  161.6405 C.3     1  UNL1        0.1052
     24 C         141.9831  144.4199  162.4545 C.2     1  UNL1        0.2315
     25 O         143.4573  144.6869  162.3814 O.2     1  UNL1       -0.2745
     26 N         141.0911  143.6369  163.3719 N.am    1  UNL1       -0.2546
     27 C         139.8982  144.0423  162.5579 C.3     1  UNL1        0.1249
     28 C         141.3040  142.7967  164.5960 C.ar    1  UNL1        0.0541
     29 C         140.3963  142.9528  165.7800 C.ar    1  UNL1        0.0146
     30 C         140.6091  142.1126  167.0041 C.ar    1  UNL1       -0.0030
     31 C         141.7297  141.1162  167.0444 C.ar    1  UNL1       -0.0227
     32 C         142.6374  140.9600  165.8605 C.ar    1  UNL1       -0.0030
     33 C         142.4244  141.8003  164.6363 C.ar    1  UNL1        0.0146
     34 C         141.9425  140.2759  168.2686 C.3     1  UNL1        0.0189
     35 C         142.7625  139.3114  167.4640 C.3     1  UNL1        0.0044
     36 C         141.1226  141.2404  169.0732 C.3     1  UNL1        0.0044
     37 C         142.1554  139.4357  169.4928 C.3     1  UNL1        0.0044
     38 C         138.4240  143.7754  162.6309 C.2     1  UNL1        0.0692
     39 O         137.7278  143.0931  161.4907 O.co2   1  UNL1       -0.5475
     40 O         137.6458  144.1906  163.8442 O.co2   1  UNL1       -0.5475
@<TRIPOS>UNITY_ATOM_ATTR
39 1
charge -1
@<TRIPOS>BOND
     1    10    11    1
     2    11    12   ar
     3    12    13   ar
     4    13    16    1
     5    16    17   ar
     6    17    18   ar
     7    18    19   ar
     8    19    20   ar
     9    20    21   ar
    10    13    14   ar
    11    14    15   ar
    12    15     9    1
    13     9     8    1
    14     8     7    1
    15     7     1    1
    16     1     2   ar
    17     2     3   ar
    18     3     4   ar
    19     4     5   ar
    20     5    22    1
    21    23    22    1
    22    23    24    1
    23    24    25    2
    24    24    26   am
    25    26    28    1
    26    28    29   ar
    27    29    30   ar
    28    30    31   ar
    29    31    34    1
    30    34    35    1
    31    34    36    1
    32    34    37    1
    33    31    32   ar
    34    32    33   ar
    35    26    27    1
    36    27    38    1
    37    38    39   ar
    38    38    40   ar
    39     5     6   ar
    40    15    11   ar
    41     6     1   ar
    42    21    16   ar
    43    27    23    1
    44    33    28   ar
@<TRIPOS>MOLECULE
*****
 40 44 0 0 0
SMALL
GASTEIGER

@<TRIPOS>ATOM
      1 C         141.6160  142.9210  157.3022 C.ar    1  UNL1        0.1383
      2 C         142.1907  143.8479  156.2723 C.ar    1  UNL1        0.0369
      3 C         142.2558  145.3219  156.5430 C.ar    1  UNL1        0.0028
      4 C         141.7463  145.8688  157.8435 C.ar    1  UNL1       -0.0041
      5 C         141.1716  144.9419  158.8733 C.ar    1  UNL1       -0.0186
      6 C         141.1065  143.4679  158.6025 C.ar    1  UNL1        0.0326
      7 O         141.5509  141.4470  157.0315 O.3     1  UNL1       -0.4751
      8 C         141.9889  140.4713  158.0832 C.3     1  UNL1        0.2118
      9 C         141.1080  139.3122  158.4444 C.3     1  UNL1        0.0960
     10 C         138.0861  140.5168  158.1859 C.3     1  UNL1        0.0738
     11 C         138.7243  139.9986  159.4405 C.ar    1  UNL1        0.1387
     12 O         138.0857  139.9432  160.7966 O.2     1  UNL1       -0.4392
     13 C         139.0800  139.3552  161.7536 C.ar    1  UNL1        0.2289
     14 N         140.3331  139.0473  160.9889 N.ar    1  UNL1       -0.2129
     15 C         140.1134  139.4449  159.5594 C.ar    1  UNL1        0.0960
     16 C         138.8597  139.1170  163.2181 C.ar    1  UNL1        0.0535
     17 C         138.3448  140.2245  164.0890 C.ar    1  UNL1        0.0046
     18 C         138.1245  139.9862  165.5534 C.ar    1  UNL1        0.0002
     19 C         138.4192  138.6406  166.1470 C.ar    1  UNL1        0.0000
     20 C         138.9341  137.5331  165.2762 C.ar    1  UNL1        0.0002
     21 C         139.1544  137.7714  163.8117 C.ar    1  UNL1        0.0046
     22 C         140.6621  145.4888  160.1737 C.3     1  UNL1        0.0376
     23 C         140.7799  144.6741  161.4276 C.3     1  UNL1        0.1052
     24 C         141.9122  144.2550  162.3177 C.2     1  UNL1        0.2315
     25 O         143.3956  144.4770  162.3226 O.2     1  UNL1       -0.2745
     26 N         140.9465  143.5219  163.2010 N.am    1  UNL1       -0.2546
     27 C         139.8142  143.9411  162.3109 C.3     1  UNL1        0.1249
     28 C         141.0643  142.7072  164.4549 C.ar    1  UNL1        0.0541
     29 C         141.7519  141.3745  164.4216 C.ar    1  UNL1        0.0146
     30 C         141.8697  140.5598  165.6755 C.ar    1  UNL1       -0.0030
     31 C         141.2999  141.0778  166.9628 C.ar    1  UNL1       -0.0227
     32 C         140.6123  142.4105  166.9961 C.ar    1  UNL1       -0.0030
     33 C         140.4946  143.2252  165.7421 C.ar    1  UNL1        0.0146
     34 C         141.4177  140.2631  168.2167 C.3     1  UNL1        0.0189
     35 C         142.6904  139.6574  167.7036 C.3     1  UNL1        0.0044
     36 C         140.1450  140.8688  168.7298 C.3     1  UNL1        0.0044
     37 C         141.5355  139.4484  169.4706 C.3     1  UNL1        0.0044
     38 C         138.3308  143.7191  162.3060 C.2     1  UNL1        0.0692
     39 O         137.6874  142.9751  161.1735 O.co2   1  UNL1       -0.5475
     40 O         137.4906  144.2411  163.4337 O.co2   1  UNL1       -0.5475
@<TRIPOS>UNITY_ATOM_ATTR
39 1
charge -1
@<TRIPOS>BOND
     1    10    11    1
     2    11    12   ar
     3    12    13   ar
     4    13    16    1
     5    16    17   ar
     6    17    18   ar
     7    18    19   ar
     8    19    20   ar
     9    20    21   ar
    10    13    14   ar
    11    14    15   ar
    12    15     9    1
    13     9     8    1
    14     8     7    1
    15     7     1    1
    16     1     2   ar
    17     2     3   ar
    18     3     4   ar
    19     4     5   ar
    20     5    22    1
    21    23    22    1
    22    23    24    1
    23    24    25    2
    24    24    26   am
    25    26    28    1
    26    28    29   ar
    27    29    30   ar
    28    30    31   ar
    29    31    34    1
    30    34    35    1
    31    34    36    1
    32    34    37    1
    33    31    32   ar
    34    32    33   ar
    35    26    27    1
    36    27    38    1
    37    38    39   ar
    38    38    40   ar
    39     5     6   ar
    40    15    11   ar
    41     6     1   ar
    42    21    16   ar
    43    27    23    1
    44    33    28   ar
@<TRIPOS>MOLECULE
*****
 40 44 0 0 0
SMALL
GASTEIGER

@<TRIPOS>ATOM
      1 C         142.9492  140.3843  158.4647 C.ar    1  UNL1        0.1383
      2 C         142.2899  140.4911  157.1216 C.ar    1  UNL1        0.0369
      3 C         141.5495  141.7406  156.7468 C.ar    1  UNL1        0.0028
      4 C         141.4684  142.8833  157.7151 C.ar    1  UNL1       -0.0041
      5 C         142.1277  142.7765  159.0583 C.ar    1  UNL1       -0.0186
      6 C         142.8681  141.5270  159.4330 C.ar    1  UNL1        0.0326
      7 O         143.6896  139.1348  158.8395 O.3     1  UNL1       -0.4751
      8 C         142.9777  138.0290  159.5610 C.3     1  UNL1        0.2118
      9 C         143.4274  137.6160  160.9311 C.3     1  UNL1        0.0960
     10 C         144.5659  140.2582  162.4713 C.3     1  UNL1        0.0738
     11 C         143.3461  139.4728  162.8522 C.ar    1  UNL1        0.1387
     12 O         142.4354  139.7640  164.0080 O.2     1  UNL1       -0.4392
     13 C         141.3492  138.7295  164.0143 C.ar    1  UNL1        0.2289
     14 N         141.5886  137.7989  162.8625 N.ar    1  UNL1       -0.2129
     15 C         142.8227  138.2583  162.1443 C.ar    1  UNL1        0.0960
     16 C         140.2215  138.6411  164.9996 C.ar    1  UNL1        0.0535
     17 C         139.2320  137.5176  164.9081 C.ar    1  UNL1        0.0046
     18 C         138.1044  137.4292  165.8933 C.ar    1  UNL1        0.0002
     19 C         137.9664  138.4644  166.9700 C.ar    1  UNL1        0.0000
     20 C         138.9559  139.5879  167.0616 C.ar    1  UNL1        0.0002
     21 C         140.0835  139.6762  166.0763 C.ar    1  UNL1        0.0046
     22 C         142.0466  143.9192  160.0265 C.3     1  UNL1        0.0376
     23 C         141.9842  143.6500  161.5008 C.3     1  UNL1        0.1052
     24 C         142.7326  144.1464  162.7023 C.2     1  UNL1        0.2315
     25 O         143.8534  145.1175  162.9270 O.2     1  UNL1       -0.2745
     26 N         141.8959  143.2693  163.5859 N.am    1  UNL1       -0.2546
     27 C         141.1475  142.7729  162.3844 C.3     1  UNL1        0.1249
     28 C         141.8335  143.0001  165.0602 C.ar    1  UNL1        0.0541
     29 C         143.0473  142.4950  165.7824 C.ar    1  UNL1        0.0146
     30 C         142.9849  142.2258  167.2567 C.ar    1  UNL1       -0.0030
     31 C         141.7087  142.4617  168.0088 C.ar    1  UNL1       -0.0227
     32 C         140.4949  142.9667  167.2867 C.ar    1  UNL1       -0.0030
     33 C         140.5574  143.2359  165.8123 C.ar    1  UNL1        0.0146
     34 C         141.6463  142.1925  169.4831 C.3     1  UNL1        0.0189
     35 C         142.6767  141.1133  169.3297 C.3     1  UNL1        0.0044
     36 C         140.6159  143.2717  169.6366 C.3     1  UNL1        0.0044
     37 C         141.5839  141.9233  170.9575 C.3     1  UNL1        0.0044
     38 C         140.0266  141.8018  162.1597 C.2     1  UNL1        0.0692
     39 O         140.2220  140.6297  161.2440 O.co2   1  UNL1       -0.5475
     40 O         138.7104  142.0025  162.8506 O.co2   1  UNL1       -0.5475
@<TRIPOS>UNITY_ATOM_ATTR
39 1
charge -1
@<TRIPOS>BOND
     1    10    11    1
     2    11    12   ar
     3    12    13   ar
     4    13    16    1
     5    16    17   ar
     6    17    18   ar
     7    18    19   ar
     8    19    20   ar
     9    20    21   ar
    10    13    14   ar
    11    14    15   ar
    12    15     9    1
    13     9     8    1
    14     8     7    1
    15     7     1    1
    16     1     2   ar
    17     2     3   ar
    18     3     4   ar
    19     4     5   ar
    20     5    22    1
    21    23    22    1
    22    23    24    1
    23    24    25    2
    24    24    26   am
    25    26    28    1
    26    28    29   ar
    27    29    30   ar
    28    30    31   ar
    29    31    34    1
    30    34    35    1
    31    34    36    1
    32    34    37    1
    33    31    32   ar
    34    32    33   ar
    35    26    27    1
    36    27    38    1
    37    38    39   ar
    38    38    40   ar
    39     5     6   ar
    40    15    11   ar
    41     6     1   ar
    42    21    16   ar
    43    27    23    1
    44    33    28   ar
@<TRIPOS>MOLECULE
*****
 40 44 0 0 0
SMALL
GASTEIGER

@<TRIPOS>ATOM
      1 C         140.1752  142.7631  158.3060 C.ar    1  UNL1        0.1383
      2 C         140.6571  143.5196  157.1038 C.ar    1  UNL1        0.0369
      3 C         141.0011  144.9750  157.2216 C.ar    1  UNL1        0.0028
      4 C         140.8631  145.6736  158.5418 C.ar    1  UNL1       -0.0041
      5 C         140.3811  144.9171  159.7441 C.ar    1  UNL1       -0.0186
      6 C         140.0372  143.4618  159.6261 C.ar    1  UNL1        0.0326
      7 O         139.8312  141.3079  158.1881 O.3     1  UNL1       -0.4751
      8 C         138.6026  140.7708  158.8604 C.3     1  UNL1        0.2118
      9 C         138.7245  139.6894  159.8927 C.3     1  UNL1        0.0960
     10 C         137.7784  141.8704  162.1284 C.3     1  UNL1        0.0738
     11 C         138.9768  140.9733  162.2236 C.ar    1  UNL1        0.1387
     12 O         139.9508  140.9212  163.3632 O.2     1  UNL1       -0.4392
     13 C         140.9875  139.8865  163.0400 C.ar    1  UNL1        0.2289
     14 N         140.6544  139.2991  161.7006 N.ar    1  UNL1       -0.2129
     15 C         139.4117  139.9708  161.1960 C.ar    1  UNL1        0.0960
     16 C         142.1529  139.5059  163.9044 C.ar    1  UNL1        0.0535
     17 C         143.5523  139.7859  163.4425 C.ar    1  UNL1        0.0046
     18 C         144.7176  139.4054  164.3070 C.ar    1  UNL1        0.0002
     19 C         144.4835  138.7449  165.6332 C.ar    1  UNL1        0.0000
     20 C         143.0841  138.4649  166.0951 C.ar    1  UNL1        0.0002
     21 C         141.9189  138.8454  165.2306 C.ar    1  UNL1        0.0046
     22 C         140.2432  145.6158  161.0641 C.3     1  UNL1        0.0376
     23 C         140.6013  144.8999  162.3327 C.3     1  UNL1        0.1052
     24 C         139.8801  144.5752  163.6072 C.2     1  UNL1        0.2315
     25 O         138.5021  144.8320  164.1411 O.2     1  UNL1       -0.2745
     26 N         141.1078  143.8874  164.1268 N.am    1  UNL1       -0.2546
     27 C         141.8289  144.2121  162.8522 C.3     1  UNL1        0.1249
     28 C         141.4659  143.1716  165.3953 C.ar    1  UNL1        0.0541
     29 C         142.8851  142.7564  165.6472 C.ar    1  UNL1        0.0146
     30 C         143.2432  142.0406  166.9157 C.ar    1  UNL1       -0.0030
     31 C         142.1821  141.7398  167.9324 C.ar    1  UNL1       -0.0227
     32 C         140.7628  142.1549  167.6805 C.ar    1  UNL1       -0.0030
     33 C         140.4048  142.8708  166.4119 C.ar    1  UNL1        0.0146
     34 C         142.5402  141.0239  169.2010 C.3     1  UNL1        0.0189
     35 C         143.5520  142.0859  169.5146 C.3     1  UNL1        0.0044
     36 C         141.5284  139.9619  168.8873 C.3     1  UNL1        0.0044
     37 C         142.8983  140.3080  170.4695 C.3     1  UNL1        0.0044
     38 C         143.2070  143.9554  162.3183 C.2     1  UNL1        0.0692
     39 O         144.2969  144.9619  162.5402 O.co2   1  UNL1       -0.5475
     40 O         143.4952  142.6922  161.5625 O.co2   1  UNL1       -0.5475
@<TRIPOS>UNITY_ATOM_ATTR
39 1
charge -1
@<TRIPOS>BOND
     1    10    11    1
     2    11    12   ar
     3    12    13   ar
     4    13    16    1
     5    16    17   ar
     6    17    18   ar
     7    18    19   ar
     8    19    20   ar
     9    20    21   ar
    10    13    14   ar
    11    14    15   ar
    12    15     9    1
    13     9     8    1
    14     8     7    1
    15     7     1    1
    16     1     2   ar
    17     2     3   ar
    18     3     4   ar
    19     4     5   ar
    20     5    22    1
    21    23    22    1
    22    23    24    1
    23    24    25    2
    24    24    26   am
    25    26    28    1
    26    28    29   ar
    27    29    30   ar
    28    30    31   ar
    29    31    34    1
    30    34    35    1
    31    34    36    1
    32    34    37    1
    33    31    32   ar
    34    32    33   ar
    35    26    27    1
    36    27    38    1
    37    38    39   ar
    38    38    40   ar
    39     5     6   ar
    40    15    11   ar
    41     6     1   ar
    42    21    16   ar
    43    27    23    1
    44    33    28   ar
@<TRIPOS>MOLECULE
*****
 40 44 0 0 0
SMALL
GASTEIGER

@<TRIPOS>ATOM
      1 C         139.1940  142.9061  157.9600 C.ar    1  UNL1        0.1383
      2 C         140.1678  142.9647  156.8205 C.ar    1  UNL1        0.0369
      3 C         141.4499  143.7293  156.9682 C.ar    1  UNL1        0.0028
      4 C         141.7581  144.4352  158.2553 C.ar    1  UNL1       -0.0041
      5 C         140.7843  144.3766  159.3948 C.ar    1  UNL1       -0.0186
      6 C         139.5023  143.6121  159.2470 C.ar    1  UNL1        0.0326
      7 O         137.9120  142.1416  157.8123 O.3     1  UNL1       -0.4751
      8 C         137.8736  140.6746  158.1227 C.3     1  UNL1        0.2118
      9 C         139.1264  139.9633  158.5404 C.3     1  UNL1        0.0960
     10 C         141.9661  140.9863  159.7810 C.3     1  UNL1        0.0738
     11 C         140.8263  140.3964  160.5573 C.ar    1  UNL1        0.1387
     12 O         140.7915  140.1731  162.0402 O.2     1  UNL1       -0.4392
     13 C         139.4648  139.5649  162.3864 C.ar    1  UNL1        0.2289
     14 N         138.6796  139.4123  161.1176 N.ar    1  UNL1       -0.2129
     15 C         139.5210  139.9261  159.9871 C.ar    1  UNL1        0.0960
     16 C         139.0042  139.1773  163.7604 C.ar    1  UNL1        0.0535
     17 C         139.0743  137.7445  164.1986 C.ar    1  UNL1        0.0046
     18 C         138.6138  137.3570  165.5725 C.ar    1  UNL1        0.0002
     19 C         138.0830  138.4024  166.5082 C.ar    1  UNL1        0.0000
     20 C         138.0129  139.8352  166.0701 C.ar    1  UNL1        0.0002
     21 C         138.4735  140.2227  164.6961 C.ar    1  UNL1        0.0046
     22 C         141.0926  145.0826  160.6818 C.3     1  UNL1        0.0376
     23 C         141.1058  144.3178  161.9721 C.3     1  UNL1        0.1052
     24 C         140.0880  143.5454  162.7579 C.2     1  UNL1        0.2315
     25 O         138.6352  143.2179  162.5787 O.2     1  UNL1       -0.2745
     26 N         141.1247  143.2363  163.7970 N.am    1  UNL1       -0.2546
     27 C         142.1425  144.0087  163.0113 C.3     1  UNL1        0.1249
     28 C         141.1379  142.4716  165.0874 C.ar    1  UNL1        0.0541
     29 C         141.8772  141.1697  165.1800 C.ar    1  UNL1        0.0146
     30 C         141.8905  140.4050  166.4703 C.ar    1  UNL1       -0.0030
     31 C         141.1645  140.9421  167.6680 C.ar    1  UNL1       -0.0227
     32 C         140.4252  142.2440  167.5754 C.ar    1  UNL1       -0.0030
     33 C         140.4120  143.0087  166.2850 C.ar    1  UNL1        0.0146
     34 C         141.1777  140.1774  168.9584 C.3     1  UNL1        0.0189
     35 C         142.5390  139.6416  168.6269 C.3     1  UNL1        0.0044
     36 C         139.8165  140.7131  169.2899 C.3     1  UNL1        0.0044
     37 C         141.1910  139.4126  170.2487 C.3     1  UNL1        0.0044
     38 C         143.5953  144.3362  163.1905 C.2     1  UNL1        0.0692
     39 O         144.0976  144.8156  164.5202 O.co2   1  UNL1       -0.5475
     40 O         144.5458  144.1844  162.0400 O.co2   1  UNL1       -0.5475
@<TRIPOS>UNITY_ATOM_ATTR
39 1
charge -1
@<TRIPOS>BOND
     1    10    11    1
     2    11    12   ar
     3    12    13   ar
     4    13    16    1
     5    16    17   ar
     6    17    18   ar
     7    18    19   ar
     8    19    20   ar
     9    20    21   ar
    10    13    14   ar
    11    14    15   ar
    12    15     9    1
    13     9     8    1
    14     8     7    1
    15     7     1    1
    16     1     2   ar
    17     2     3   ar
    18     3     4   ar
    19     4     5   ar
    20     5    22    1
    21    23    22    1
    22    23    24    1
    23    24    25    2
    24    24    26   am
    25    26    28    1
    26    28    29   ar
    27    29    30   ar
    28    30    31   ar
    29    31    34    1
    30    34    35    1
    31    34    36    1
    32    34    37    1
    33    31    32   ar
    34    32    33   ar
    35    26    27    1
    36    27    38    1
    37    38    39   ar
    38    38    40   ar
    39     5     6   ar
    40    15    11   ar
    41     6     1   ar
    42    21    16   ar
    43    27    23    1
    44    33    28   ar
@<TRIPOS>MOLECULE
*****
 40 44 0 0 0
SMALL
GASTEIGER

@<TRIPOS>ATOM
      1 C         141.0936  138.8350  158.6697 C.ar    1  UNL1        0.1383
      2 C         140.7706  139.6507  157.4531 C.ar    1  UNL1        0.0369
      3 C         139.4447  140.3440  157.3452 C.ar    1  UNL1        0.0028
      4 C         138.4420  140.2214  158.4541 C.ar    1  UNL1       -0.0041
      5 C         138.7651  139.4057  159.6708 C.ar    1  UNL1       -0.0186
      6 C         140.0910  138.7125  159.7785 C.ar    1  UNL1        0.0326
      7 O         142.4195  138.1418  158.7774 O.3     1  UNL1       -0.4751
      8 C         142.8844  137.6141  160.1024 C.3     1  UNL1        0.2118
      9 C         143.9799  138.3177  160.8473 C.3     1  UNL1        0.0960
     10 C         142.9422  141.3688  160.3335 C.3     1  UNL1        0.0738
     11 C         143.1632  140.7261  161.6707 C.ar    1  UNL1        0.1387
     12 O         142.9461  141.3729  163.0065 O.2     1  UNL1       -0.4392
     13 C         143.2890  140.3703  164.0683 C.ar    1  UNL1        0.2289
     14 N         143.7179  139.1038  163.3886 N.ar    1  UNL1       -0.2129
     15 C         143.6402  139.3237  161.9069 C.ar    1  UNL1        0.0960
     16 C         143.2157  140.5949  165.5496 C.ar    1  UNL1        0.0535
     17 C         142.9217  139.4464  166.4686 C.ar    1  UNL1        0.0046
     18 C         142.8484  139.6710  167.9499 C.ar    1  UNL1        0.0002
     19 C         143.0691  141.0440  168.5121 C.ar    1  UNL1        0.0000
     20 C         143.3631  142.1924  167.5931 C.ar    1  UNL1        0.0002
     21 C         143.4364  141.9679  166.1119 C.ar    1  UNL1        0.0046
     22 C         137.7624  139.2832  160.7795 C.3     1  UNL1        0.0376
     23 C         138.1306  139.6988  162.1730 C.3     1  UNL1        0.1052
     24 C         137.9476  140.9418  162.9924 C.2     1  UNL1        0.2315
     25 O         137.3207  142.2841  162.7576 O.2     1  UNL1       -0.2745
     26 N         138.6513  140.2865  164.1437 N.am    1  UNL1       -0.2546
     27 C         138.8342  139.0435  163.3243 C.3     1  UNL1        0.1249
     28 C         139.0194  140.7022  165.5372 C.ar    1  UNL1        0.0541
     29 C         139.5313  142.0882  165.7958 C.ar    1  UNL1        0.0146
     30 C         139.8995  142.5038  167.1893 C.ar    1  UNL1       -0.0030
     31 C         139.7557  141.5334  168.3240 C.ar    1  UNL1       -0.0227
     32 C         139.2439  140.1474  168.0654 C.ar    1  UNL1       -0.0030
     33 C         138.8757  139.7318  166.6719 C.ar    1  UNL1        0.0146
     34 C         140.1239  141.9490  169.7175 C.3     1  UNL1        0.0189
     35 C         139.9089  140.5430  170.1937 C.3     1  UNL1        0.0044
     36 C         140.3389  143.3551  169.2413 C.3     1  UNL1        0.0044
     37 C         140.4921  142.3647  171.1109 C.3     1  UNL1        0.0044
     38 C         139.4612  137.7012  163.5591 C.2     1  UNL1        0.0692
     39 O         140.5569  137.2170  162.6563 O.co2   1  UNL1       -0.5475
     40 O         138.9924  136.8431  164.6966 O.co2   1  UNL1       -0.5475
@<TRIPOS>UNITY_ATOM_ATTR
39 1
charge -1
@<TRIPOS>BOND
     1    10    11    1
     2    11    12   ar
     3    12    13   ar
     4    13    16    1
     5    16    17   ar
     6    17    18   ar
     7    18    19   ar
     8    19    20   ar
     9    20    21   ar
    10    13    14   ar
    11    14    15   ar
    12    15     9    1
    13     9     8    1
    14     8     7    1
    15     7     1    1
    16     1     2   ar
    17     2     3   ar
    18     3     4   ar
    19     4     5   ar
    20     5    22    1
    21    23    22    1
    22    23    24    1
    23    24    25    2
    24    24    26   am
    25    26    28    1
    26    28    29   ar
    27    29    30   ar
    28    30    31   ar
    29    31    34    1
    30    34    35    1
    31    34    36    1
    32    34    37    1
    33    31    32   ar
    34    32    33   ar
    35    26    27    1
    36    27    38    1
    37    38    39   ar
    38    38    40   ar
    39     5     6   ar
    40    15    11   ar
    41     6     1   ar
    42    21    16   ar
    43    27    23    1
    44    33    28   ar
@<TRIPOS>MOLECULE
*****
 40 44 0 0 0
SMALL
GASTEIGER

@<TRIPOS>ATOM
      1 C         140.9495  141.7004  157.4871 C.ar    1  UNL1        0.1383
      2 C         141.2697  142.8652  156.5980 C.ar    1  UNL1        0.0369
      3 C         142.4672  143.7216  156.8857 C.ar    1  UNL1        0.0028
      4 C         143.3444  143.4130  158.0627 C.ar    1  UNL1       -0.0041
      5 C         143.0243  142.2481  158.9518 C.ar    1  UNL1       -0.0186
      6 C         141.8268  141.3919  158.6640 C.ar    1  UNL1        0.0326
      7 O         139.7521  140.8441  157.1994 O.3     1  UNL1       -0.4751
      8 C         138.3713  141.3870  157.4202 C.3     1  UNL1        0.2118
      9 C         138.1359  142.4346  158.4676 C.3     1  UNL1        0.0960
     10 C         140.0709  144.4098  160.2009 C.3     1  UNL1        0.0738
     11 C         139.4863  143.1116  160.6729 C.ar    1  UNL1        0.1387
     12 O         139.6883  142.4933  162.0245 O.2     1  UNL1       -0.4392
     13 C         138.9238  141.2033  162.0632 C.ar    1  UNL1        0.2289
     14 N         138.2492  141.0243  160.7355 N.ar    1  UNL1       -0.2129
     15 C         138.5968  142.2037  159.8762 C.ar    1  UNL1        0.0960
     16 C         138.8473  140.2583  163.2256 C.ar    1  UNL1        0.0535
     17 C         138.1797  140.6874  164.4985 C.ar    1  UNL1        0.0046
     18 C         138.1033  139.7424  165.6608 C.ar    1  UNL1        0.0002
     19 C         138.6943  138.3682  165.5502 C.ar    1  UNL1        0.0000
     20 C         139.3619  137.9390  164.2774 C.ar    1  UNL1        0.0002
     21 C         139.4383  138.8841  163.1151 C.ar    1  UNL1        0.0046
     22 C         143.9016  141.9396  160.1287 C.3     1  UNL1        0.0376
     23 C         143.3116  141.8700  161.5061 C.3     1  UNL1        0.1052
     24 C         142.8115  140.7671  162.3912 C.2     1  UNL1        0.2315
     25 O         142.6940  139.2770  162.2655 O.2     1  UNL1       -0.2745
     26 N         142.4774  141.7715  163.4540 N.am    1  UNL1       -0.2546
     27 C         142.9775  142.8744  162.5689 C.3     1  UNL1        0.1249
     28 C         141.8874  141.7018  164.8314 C.ar    1  UNL1        0.0541
     29 C         142.1494  140.5073  165.6999 C.ar    1  UNL1        0.0146
     30 C         141.5595  140.4376  167.0773 C.ar    1  UNL1       -0.0030
     31 C         140.7076  141.5625  167.5861 C.ar    1  UNL1       -0.0227
     32 C         140.4457  142.7571  166.7176 C.ar    1  UNL1       -0.0030
     33 C         141.0356  142.8267  165.3402 C.ar    1  UNL1        0.0146
     34 C         140.1177  141.4929  168.9635 C.3     1  UNL1        0.0189
     35 C         140.3888  142.9559  169.1536 C.3     1  UNL1        0.0044
     36 C         139.8467  140.0299  168.7734 C.3     1  UNL1        0.0044
     37 C         139.5278  141.4232  170.3408 C.3     1  UNL1        0.0044
     38 C         143.0950  144.3645  162.6946 C.2     1  UNL1        0.0692
     39 O         144.4220  145.0324  162.4873 O.co2   1  UNL1       -0.5475
     40 O         141.8854  145.1867  163.0275 O.co2   1  UNL1       -0.5475
@<TRIPOS>UNITY_ATOM_ATTR
39 1
charge -1
@<TRIPOS>BOND
     1    10    11    1
     2    11    12   ar
     3    12    13   ar
     4    13    16    1
     5    16    17   ar
     6    17    18   ar
     7    18    19   ar
     8    19    20   ar
     9    20    21   ar
    10    13    14   ar
    11    14    15   ar
    12    15     9    1
    13     9     8    1
    14     8     7    1
    15     7     1    1
    16     1     2   ar
    17     2     3   ar
    18     3     4   ar
    19     4     5   ar
    20     5    22    1
    21    23    22    1
    22    23    24    1
    23    24    25    2
    24    24    26   am
    25    26    28    1
    26    28    29   ar
    27    29    30   ar
    28    30    31   ar
    29    31    34    1
    30    34    35    1
    31    34    36    1
    32    34    37    1
    33    31    32   ar
    34    32    33   ar
    35    26    27    1
    36    27    38    1
    37    38    39   ar
    38    38    40   ar
    39     5     6   ar
    40    15    11   ar
    41     6     1   ar
    42    21    16   ar
    43    27    23    1
    44    33    28   ar
@<TRIPOS>MOLECULE
*****
 40 44 0 0 0
SMALL
GASTEIGER

@<TRIPOS>ATOM
      1 C         139.6317  139.1991  158.2916 C.ar    1  UNL1        0.1383
      2 C         139.8536  138.0504  157.3529 C.ar    1  UNL1        0.0369
      3 C         141.2199  137.4462  157.2166 C.ar    1  UNL1        0.0028
      4 C         142.3641  137.9909  158.0192 C.ar    1  UNL1       -0.0041
      5 C         142.1422  139.1396  158.9579 C.ar    1  UNL1       -0.0186
      6 C         140.7759  139.7436  159.0941 C.ar    1  UNL1        0.0326
      7 O         138.2655  139.8031  158.4278 O.3     1  UNL1       -0.4751
      8 C         137.7592  140.7555  157.3854 C.3     1  UNL1        0.2118
      9 C         137.8981  142.2349  157.5903 C.3     1  UNL1        0.0960
     10 C         141.0135  143.2022  157.4984 C.3     1  UNL1        0.0738
     11 C         140.1248  143.2049  158.7067 C.ar    1  UNL1        0.1387
     12 O         140.5119  143.6526  160.0850 O.2     1  UNL1       -0.4392
     13 C         139.3193  143.4847  160.9791 C.ar    1  UNL1        0.2289
     14 N         138.1950  142.9332  160.1534 N.ar    1  UNL1       -0.2129
     15 C         138.6927  142.7603  158.7490 C.ar    1  UNL1        0.0960
     16 C         139.2612  143.8111  162.4420 C.ar    1  UNL1        0.0535
     17 C         140.5236  144.1124  163.1940 C.ar    1  UNL1        0.0046
     18 C         140.4654  144.4387  164.6568 C.ar    1  UNL1        0.0002
     19 C         139.1448  144.4637  165.3678 C.ar    1  UNL1        0.0000
     20 C         137.8824  144.1624  164.6159 C.ar    1  UNL1        0.0002
     21 C         137.9406  143.8361  163.1530 C.ar    1  UNL1        0.0046
     22 C         143.2864  139.6842  159.7603 C.3     1  UNL1        0.0376
     23 C         143.0620  140.1435  161.1705 C.3     1  UNL1        0.1052
     24 C         143.2976  141.4213  161.9201 C.2     1  UNL1        0.2315
     25 O         143.8552  142.7690  161.5699 O.2     1  UNL1       -0.2745
     26 N         142.7446  140.7931  163.1650 N.am    1  UNL1       -0.2546
     27 C         142.5090  139.5153  162.4154 C.3     1  UNL1        0.1249
     28 C         142.5201  141.2524  164.5751 C.ar    1  UNL1        0.0541
     29 C         143.5793  142.0436  165.2837 C.ar    1  UNL1        0.0146
     30 C         143.3549  142.5029  166.6939 C.ar    1  UNL1       -0.0030
     31 C         142.0713  142.1711  167.3955 C.ar    1  UNL1       -0.0227
     32 C         141.0121  141.3799  166.6869 C.ar    1  UNL1       -0.0030
     33 C         141.2366  140.9206  165.2767 C.ar    1  UNL1        0.0146
     34 C         141.8469  142.6304  168.8057 C.3     1  UNL1        0.0189
     35 C         143.2639  142.2757  169.1467 C.3     1  UNL1        0.0044
     36 C         140.4299  142.9850  168.4647 C.3     1  UNL1        0.0044
     37 C         141.6224  143.0897  170.2159 C.3     1  UNL1        0.0044
     38 C         141.9514  138.1676  162.7656 C.2     1  UNL1        0.0692
     39 O         141.2063  137.3730  161.7342 O.co2   1  UNL1       -0.5475
     40 O         142.1387  137.6144  164.1473 O.co2   1  UNL1       -0.5475
@<TRIPOS>UNITY_ATOM_ATTR
39 1
charge -1
@<TRIPOS>BOND
     1    10    11    1
     2    11    12   ar
     3    12    13   ar
     4    13    16    1
     5    16    17   ar
     6    17    18   ar
     7    18    19   ar
     8    19    20   ar
     9    20    21   ar
    10    13    14   ar
    11    14    15   ar
    12    15     9    1
    13     9     8    1
    14     8     7    1
    15     7     1    1
    16     1     2   ar
    17     2     3   ar
    18     3     4   ar
    19     4     5   ar
    20     5    22    1
    21    23    22    1
    22    23    24    1
    23    24    25    2
    24    24    26   am
    25    26    28    1
    26    28    29   ar
    27    29    30   ar
    28    30    31   ar
    29    31    34    1
    30    34    35    1
    31    34    36    1
    32    34    37    1
    33    31    32   ar
    34    32    33   ar
    35    26    27    1
    36    27    38    1
    37    38    39   ar
    38    38    40   ar
    39     5     6   ar
    40    15    11   ar
    41     6     1   ar
    42    21    16   ar
    43    27    23    1
    44    33    28   ar
