@<TRIPOS>MOLECULE
*****
 37 42 0 0 0
SMALL
GASTEIGER

@<TRIPOS>ATOM
      1 C         142.8476  143.7456  160.8821 C.ar    1  UNL1        0.2392
      2 N         143.5898  142.8759  159.9112 N.ar    1  UNL1       -0.1958
      3 C         143.2966  142.9709  158.4432 C.ar    1  UNL1        0.1539
      4 C         142.2610  143.9356  157.9462 C.ar    1  UNL1        0.1146
      5 C         141.7608  144.2487  156.5672 C.ar    1  UNL1        0.0236
      6 C         140.7093  145.3118  156.6859 C.ar    1  UNL1        0.0223
      7 C         140.5597  145.6558  158.1382 C.ar    1  UNL1        0.1006
      8 N         141.5188  144.8052  158.9171 N.ar    1  UNL1       -0.2229
      9 N         141.8121  144.7102  160.3851 N.ar    1  UNL1       -0.1294
     10 C         141.8947  142.1016  162.0725 C.3     1  UNL1        0.0293
     11 C         142.5935  142.6211  163.2938 C.3     1  UNL1        0.1293
     12 C         143.1474  142.9028  164.6591 C.3     1  UNL1        0.0289
     13 C         144.0371  144.1063  164.5592 C.3     1  UNL1        0.0237
     14 C         144.0331  144.5685  163.1322 C.3     1  UNL1        0.0941
     15 N         143.1409  143.6506  162.3501 N.pl3   1  UNL1       -0.2722
     16 C         141.9000  141.4830  163.9822 C.2     1  UNL1        0.2422
     17 O         142.6902  140.5145  164.8112 O.2     1  UNL1       -0.2731
     18 N         140.4163  141.3135  163.8414 N.am    1  UNL1       -0.2814
     19 H         139.8977  141.9492  163.2972 H       1  UNL1        0.1549
     20 C         139.7228  140.1755  164.5298 C.ar    1  UNL1        0.0699
     21 C         139.0965  140.3833  165.8769 C.ar    1  UNL1        0.0202
     22 C         138.4031  139.2452  166.5653 C.ar    1  UNL1        0.0510
     23 C         138.3359  137.8993  165.9066 C.ar    1  UNL1        0.2224
     24 F         137.6424  136.7612  166.5949 F       1  UNL1       -0.1832
     25 N         138.9622  137.6914  164.5594 N.ar    1  UNL1       -0.2151
     26 C         139.6556  138.8295  163.8711 C.ar    1  UNL1        0.1159
     27 N         144.0389  142.1012  157.4723 N.pl3   1  UNL1       -0.2825
     28 H         143.5661  141.3817  156.9948 H       1  UNL1        0.1550
     29 C         145.5015  142.3278  157.2289 C.ar    1  UNL1        0.1277
     30 C         146.2893  141.8209  156.0573 C.ar    1  UNL1        0.0502
     31 C         147.7079  142.2809  156.2188 C.ar    1  UNL1        0.0807
     32 N         147.7969  143.0720  157.4901 N.ar    1  UNL1       -0.1760
     33 N         146.4332  143.1009  158.1144 N.ar    1  UNL1       -0.2631
     34 H         146.1921  143.5488  158.9573 H       1  UNL1        0.1903
     35 C         148.8390  141.9992  155.2746 C.3     1  UNL1        0.0421
     36 C         150.1837  141.3928  155.0028 C.3     1  UNL1        0.0064
     37 C         149.4534  142.1178  153.9114 C.3     1  UNL1        0.0064
@<TRIPOS>BOND
     1    11    10    1
     2    11    16    1
     3    16    17    2
     4    16    18   am
     5    18    20    1
     6    20    21   ar
     7    21    22   ar
     8    22    23   ar
     9    23    24    1
    10    23    25   ar
    11    25    26   ar
    12    11    12    1
    13    12    13    1
    14    13    14    1
    15    14    15    1
    16    15     1    1
    17     1     2   ar
    18     2     3   ar
    19     3    27    1
    20    27    29    1
    21    29    30   ar
    22    30    31   ar
    23    31    35    1
    24    35    36    1
    25    36    37    1
    26    31    32   ar
    27    32    33   ar
    28     3     4   ar
    29     4     5   ar
    30     5     6   ar
    31     6     7   ar
    32     7     8   ar
    33     8     9   ar
    34    15    11    1
    35     9     1   ar
    36    26    20   ar
    37    33    29   ar
    38     8     4   ar
    39    37    35    1
    40    18    19    1
    41    27    28    1
    42    33    34    1
@<TRIPOS>MOLECULE
*****
 37 42 0 0 0
SMALL
GASTEIGER

@<TRIPOS>ATOM
      1 C         139.9844  142.2035  157.9007 C.ar    1  UNL1        0.2392
      2 N         140.6709  143.1081  158.8806 N.ar    1  UNL1       -0.1958
      3 C         140.7270  144.5853  158.6257 C.ar    1  UNL1        0.1539
      4 C         140.0965  145.1577  157.3908 C.ar    1  UNL1        0.1146
      5 C         139.9933  146.5627  156.8756 C.ar    1  UNL1        0.0236
      6 C         139.2429  146.5263  155.5773 C.ar    1  UNL1        0.0223
      7 C         138.8824  145.0988  155.2901 C.ar    1  UNL1        0.1006
      8 N         139.4100  144.2530  156.4109 N.ar    1  UNL1       -0.2229
      9 N         139.3539  142.7759  156.6659 N.ar    1  UNL1       -0.1294
     10 C         139.1982  141.4736  159.8696 C.3     1  UNL1        0.0293
     11 C         139.4345  140.0660  159.4086 C.3     1  UNL1        0.1293
     12 C         139.5572  138.5817  159.2296 C.3     1  UNL1        0.0289
     13 C         140.1268  138.3248  157.8660 C.3     1  UNL1        0.0237
     14 C         140.3562  139.6503  157.2022 C.3     1  UNL1        0.0941
     15 N         139.9283  140.7263  158.1556 N.pl3   1  UNL1       -0.2722
     16 C         138.8912  139.6999  160.7580 C.2     1  UNL1        0.2422
     17 O         137.4290  139.4101  160.9244 O.2     1  UNL1       -0.2731
     18 N         139.8103  139.6235  161.9410 N.am    1  UNL1       -0.2814
     19 H         140.7701  139.8137  161.8317 H       1  UNL1        0.1549
     20 C         139.2671  139.2574  163.2904 C.ar    1  UNL1        0.0699
     21 C         139.3591  137.8414  163.7770 C.ar    1  UNL1        0.0202
     22 C         138.8159  137.4753  165.1264 C.ar    1  UNL1        0.0510
     23 C         138.1807  138.5251  165.9892 C.ar    1  UNL1        0.2224
     24 F         137.6374  138.1590  167.3386 F       1  UNL1       -0.1832
     25 N         138.0887  139.9411  165.5025 N.ar    1  UNL1       -0.2151
     26 C         138.6319  140.3072  164.1532 C.ar    1  UNL1        0.1159
     27 N         141.4136  145.4900  159.6056 N.pl3   1  UNL1       -0.2825
     28 H         141.9987  146.2126  159.2821 H       1  UNL1        0.1550
     29 C         141.2087  145.2936  161.0785 C.ar    1  UNL1        0.1277
     30 C         139.8903  145.1007  161.7673 C.ar    1  UNL1        0.0502
     31 C         140.1531  144.9435  163.2357 C.ar    1  UNL1        0.0807
     32 N         141.6340  145.0392  163.4544 N.ar    1  UNL1       -0.1760
     33 N         142.2864  145.2556  162.1212 N.ar    1  UNL1       -0.2631
     34 H         143.2523  145.3552  161.9589 H       1  UNL1        0.1903
     35 C         139.1170  144.7283  164.2988 C.3     1  UNL1        0.0421
     36 C         137.8517  144.0718  164.7655 C.3     1  UNL1        0.0064
     37 C         138.5877  145.0121  165.6734 C.3     1  UNL1        0.0064
@<TRIPOS>BOND
     1    11    10    1
     2    11    16    1
     3    16    17    2
     4    16    18   am
     5    18    20    1
     6    20    21   ar
     7    21    22   ar
     8    22    23   ar
     9    23    24    1
    10    23    25   ar
    11    25    26   ar
    12    11    12    1
    13    12    13    1
    14    13    14    1
    15    14    15    1
    16    15     1    1
    17     1     2   ar
    18     2     3   ar
    19     3    27    1
    20    27    29    1
    21    29    30   ar
    22    30    31   ar
    23    31    35    1
    24    35    36    1
    25    36    37    1
    26    31    32   ar
    27    32    33   ar
    28     3     4   ar
    29     4     5   ar
    30     5     6   ar
    31     6     7   ar
    32     7     8   ar
    33     8     9   ar
    34    15    11    1
    35     9     1   ar
    36    26    20   ar
    37    33    29   ar
    38     8     4   ar
    39    37    35    1
    40    18    19    1
    41    27    28    1
    42    33    34    1
@<TRIPOS>MOLECULE
*****
 37 42 0 0 0
SMALL
GASTEIGER

@<TRIPOS>ATOM
      1 C         138.1939  140.7503  156.7143 C.ar    1  UNL1        0.2392
      2 N         136.6952  140.6920  156.7184 N.ar    1  UNL1       -0.1958
      3 C         135.9138  141.4087  155.6573 C.ar    1  UNL1        0.1539
      4 C         136.6313  142.1836  154.5921 C.ar    1  UNL1        0.1146
      5 C         136.1331  142.9846  153.4259 C.ar    1  UNL1        0.0236
      6 C         137.3240  143.5380  152.7010 C.ar    1  UNL1        0.0223
      7 C         138.5583  143.0790  153.4193 C.ar    1  UNL1        0.1006
      8 N         138.1302  142.2419  154.5881 N.ar    1  UNL1       -0.2229
      9 N         138.9115  141.5253  155.6492 N.ar    1  UNL1       -0.1294
     10 C         138.3634  141.6797  158.7478 C.3     1  UNL1        0.0293
     11 C         139.1908  140.5065  159.1825 C.3     1  UNL1        0.1293
     12 C         140.0271  139.4834  159.8924 C.3     1  UNL1        0.0289
     13 C         140.3285  138.3783  158.9240 C.3     1  UNL1        0.0237
     14 C         139.6785  138.7183  157.6156 C.3     1  UNL1        0.0941
     15 N         138.9754  140.0337  157.7754 N.pl3   1  UNL1       -0.2722
     16 C         139.2332  141.2246  160.4988 C.2     1  UNL1        0.2422
     17 O         140.0840  140.6951  161.6149 O.2     1  UNL1       -0.2731
     18 N         138.4249  142.4722  160.6989 N.am    1  UNL1       -0.2814
     19 H         137.8665  142.8198  159.9663 H       1  UNL1        0.1549
     20 C         138.4674  143.1903  162.0151 C.ar    1  UNL1        0.0699
     21 C         137.6134  142.7188  163.1547 C.ar    1  UNL1        0.0202
     22 C         137.6559  143.4369  164.4709 C.ar    1  UNL1        0.0510
     23 C         138.5523  144.6265  164.6477 C.ar    1  UNL1        0.2224
     24 F         138.5948  145.3446  165.9639 F       1  UNL1       -0.1832
     25 N         139.4063  145.0980  163.5081 N.ar    1  UNL1       -0.2151
     26 C         139.3638  144.3800  162.1919 C.ar    1  UNL1        0.1159
     27 N         134.4149  141.3503  155.6614 N.pl3   1  UNL1       -0.2825
     28 H         133.8965  141.9725  155.1016 H       1  UNL1        0.1550
     29 C         133.7058  140.3440  156.5184 C.ar    1  UNL1        0.1277
     30 C         132.2472  140.0007  156.4518 C.ar    1  UNL1        0.0502
     31 C         131.9709  138.9488  157.4848 C.ar    1  UNL1        0.0807
     32 N         133.2588  138.6419  158.1899 N.ar    1  UNL1       -0.1760
     33 N         134.3311  139.5042  157.5926 N.ar    1  UNL1       -0.2631
     34 H         135.2788  139.5168  157.8589 H       1  UNL1        0.1903
     35 C         130.6403  138.3150  157.7638 C.3     1  UNL1        0.0421
     36 C         129.4703  137.4956  157.3060 C.3     1  UNL1        0.0064
     37 C         129.5057  138.0365  158.7047 C.3     1  UNL1        0.0064
@<TRIPOS>BOND
     1    11    10    1
     2    11    16    1
     3    16    17    2
     4    16    18   am
     5    18    20    1
     6    20    21   ar
     7    21    22   ar
     8    22    23   ar
     9    23    24    1
    10    23    25   ar
    11    25    26   ar
    12    11    12    1
    13    12    13    1
    14    13    14    1
    15    14    15    1
    16    15     1    1
    17     1     2   ar
    18     2     3   ar
    19     3    27    1
    20    27    29    1
    21    29    30   ar
    22    30    31   ar
    23    31    35    1
    24    35    36    1
    25    36    37    1
    26    31    32   ar
    27    32    33   ar
    28     3     4   ar
    29     4     5   ar
    30     5     6   ar
    31     6     7   ar
    32     7     8   ar
    33     8     9   ar
    34    15    11    1
    35     9     1   ar
    36    26    20   ar
    37    33    29   ar
    38     8     4   ar
    39    37    35    1
    40    18    19    1
    41    27    28    1
    42    33    34    1
@<TRIPOS>MOLECULE
*****
 37 42 0 0 0
SMALL
GASTEIGER

@<TRIPOS>ATOM
      1 C         141.4155  140.1652  160.3454 C.ar    1  UNL1        0.2392
      2 N         141.5351  141.6135  160.7167 N.ar    1  UNL1       -0.1958
      3 C         142.5218  142.4913  160.0053 C.ar    1  UNL1        0.1539
      4 C         143.3889  141.9206  158.9225 C.ar    1  UNL1        0.1146
      5 C         144.4437  142.5368  158.0521 C.ar    1  UNL1        0.0236
      6 C         144.9760  141.4692  157.1428 C.ar    1  UNL1        0.0223
      7 C         144.2502  140.1932  157.4512 C.ar    1  UNL1        0.1006
      8 N         143.2693  140.4722  158.5512 N.ar    1  UNL1       -0.2229
      9 N         142.2826  139.5945  159.2626 N.ar    1  UNL1       -0.1294
     10 C         141.6838  139.7920  162.5400 C.3     1  UNL1        0.0293
     11 C         140.4548  138.9325  162.5139 C.3     1  UNL1        0.1293
     12 C         139.2849  138.0362  162.7936 C.3     1  UNL1        0.0289
     13 C         138.5360  137.8373  161.5093 C.3     1  UNL1        0.0237
     14 C         139.2429  138.6106  160.4359 C.3     1  UNL1        0.0941
     15 N         140.4288  139.2874  161.0568 N.pl3   1  UNL1       -0.2722
     16 C         140.7377  138.7571  163.9765 C.2     1  UNL1        0.2422
     17 O         140.4461  137.4465  164.6450 O.2     1  UNL1       -0.2731
     18 N         141.3123  139.8926  164.7706 N.am    1  UNL1       -0.2814
     19 H         141.5038  140.7529  164.3319 H       1  UNL1        0.1549
     20 C         141.5952  139.7173  166.2332 C.ar    1  UNL1        0.0699
     21 C         140.6072  140.2035  167.2518 C.ar    1  UNL1        0.0202
     22 C         140.8901  140.0282  168.7144 C.ar    1  UNL1        0.0510
     23 C         142.1611  139.3667  169.1585 C.ar    1  UNL1        0.2224
     24 F         142.4440  139.1914  170.6211 F       1  UNL1       -0.1832
     25 N         143.1491  138.8805  168.1399 N.ar    1  UNL1       -0.2151
     26 C         142.8662  139.0558  166.6773 C.ar    1  UNL1        0.1159
     27 N         142.6413  143.9397  160.3768 N.pl3   1  UNL1       -0.2825
     28 H         143.0940  144.5680  159.7689 H       1  UNL1        0.1550
     29 C         142.0711  144.4307  161.6743 C.ar    1  UNL1        0.1277
     30 C         140.7198  144.0894  162.2289 C.ar    1  UNL1        0.0502
     31 C         140.5657  144.7971  163.5424 C.ar    1  UNL1        0.0807
     32 N         141.8216  145.5757  163.7997 N.ar    1  UNL1       -0.1760
     33 N         142.7520  145.3493  162.6451 N.ar    1  UNL1       -0.2631
     34 H         143.6517  145.7358  162.5425 H       1  UNL1        0.1903
     35 C         139.3661  144.7367  164.4411 C.3     1  UNL1        0.0421
     36 C         138.6913  145.0925  165.7326 C.3     1  UNL1        0.0064
     37 C         137.9632  144.2764  164.7060 C.3     1  UNL1        0.0064
@<TRIPOS>BOND
     1    11    10    1
     2    11    16    1
     3    16    17    2
     4    16    18   am
     5    18    20    1
     6    20    21   ar
     7    21    22   ar
     8    22    23   ar
     9    23    24    1
    10    23    25   ar
    11    25    26   ar
    12    11    12    1
    13    12    13    1
    14    13    14    1
    15    14    15    1
    16    15     1    1
    17     1     2   ar
    18     2     3   ar
    19     3    27    1
    20    27    29    1
    21    29    30   ar
    22    30    31   ar
    23    31    35    1
    24    35    36    1
    25    36    37    1
    26    31    32   ar
    27    32    33   ar
    28     3     4   ar
    29     4     5   ar
    30     5     6   ar
    31     6     7   ar
    32     7     8   ar
    33     8     9   ar
    34    15    11    1
    35     9     1   ar
    36    26    20   ar
    37    33    29   ar
    38     8     4   ar
    39    37    35    1
    40    18    19    1
    41    27    28    1
    42    33    34    1
@<TRIPOS>MOLECULE
*****
 37 42 0 0 0
SMALL
GASTEIGER

@<TRIPOS>ATOM
      1 C         142.7765  139.7219  161.2618 C.ar    1  UNL1        0.2392
      2 N         141.3745  140.2464  161.1664 N.ar    1  UNL1       -0.1958
      3 C         140.4951  139.8326  160.0237 C.ar    1  UNL1        0.1539
      4 C         141.0178  138.8943  158.9767 C.ar    1  UNL1        0.1146
      5 C         140.3887  138.3140  157.7448 C.ar    1  UNL1        0.0236
      6 C         141.4020  137.4308  157.0790 C.ar    1  UNL1        0.0223
      7 C         142.6573  137.4653  157.8994 C.ar    1  UNL1        0.1006
      8 N         142.4199  138.3698  159.0722 N.ar    1  UNL1       -0.2229
      9 N         143.2992  138.7836  160.2148 N.ar    1  UNL1       -0.1294
     10 C         142.0881  139.3220  163.3579 C.3     1  UNL1        0.0293
     11 C         143.3551  139.9471  163.8618 C.3     1  UNL1        0.1293
     12 C         144.5039  140.5056  164.6483 C.3     1  UNL1        0.0289
     13 C         145.5147  141.0392  163.6769 C.3     1  UNL1        0.0237
     14 C         144.9907  140.8106  162.2902 C.3     1  UNL1        0.0941
     15 N         143.6560  140.1357  162.4045 N.pl3   1  UNL1       -0.2722
     16 C         142.7893  139.6279  165.2138 C.2     1  UNL1        0.2422
     17 O         142.8086  138.2164  165.7207 O.2     1  UNL1       -0.2731
     18 N         142.2043  140.7204  166.0590 N.am    1  UNL1       -0.2814
     19 H         142.1917  141.6469  165.7263 H       1  UNL1        0.1549
     20 C         141.6386  140.4012  167.4110 C.ar    1  UNL1        0.0699
     21 C         142.5506  140.2780  168.5957 C.ar    1  UNL1        0.0202
     22 C         141.9848  139.9588  169.9477 C.ar    1  UNL1        0.0510
     23 C         140.5072  139.7628  170.1152 C.ar    1  UNL1        0.2224
     24 F         139.9414  139.4436  171.4673 F       1  UNL1       -0.1832
     25 N         139.5952  139.8859  168.9306 N.ar    1  UNL1       -0.2151
     26 C         140.1609  140.2051  167.5785 C.ar    1  UNL1        0.1159
     27 N         139.0930  140.3571  159.9283 N.pl3   1  UNL1       -0.2825
     28 H         138.5945  140.2785  159.0830 H       1  UNL1        0.1550
     29 C         138.4505  141.0014  161.1208 C.ar    1  UNL1        0.1277
     30 C         138.9386  142.2304  161.8288 C.ar    1  UNL1        0.0502
     31 C         137.9968  142.5183  162.9602 C.ar    1  UNL1        0.0807
     32 N         136.9266  141.4673  162.9514 N.ar    1  UNL1       -0.1760
     33 N         137.2070  140.5298  161.8145 N.ar    1  UNL1       -0.2631
     34 H         136.6693  139.7431  161.5672 H       1  UNL1        0.1903
     35 C         138.1059  143.6573  163.9302 C.3     1  UNL1        0.0421
     36 C         137.5406  144.4511  165.0704 C.3     1  UNL1        0.0064
     37 C         138.8602  144.8361  164.4701 C.3     1  UNL1        0.0064
@<TRIPOS>BOND
     1    11    10    1
     2    11    16    1
     3    16    17    2
     4    16    18   am
     5    18    20    1
     6    20    21   ar
     7    21    22   ar
     8    22    23   ar
     9    23    24    1
    10    23    25   ar
    11    25    26   ar
    12    11    12    1
    13    12    13    1
    14    13    14    1
    15    14    15    1
    16    15     1    1
    17     1     2   ar
    18     2     3   ar
    19     3    27    1
    20    27    29    1
    21    29    30   ar
    22    30    31   ar
    23    31    35    1
    24    35    36    1
    25    36    37    1
    26    31    32   ar
    27    32    33   ar
    28     3     4   ar
    29     4     5   ar
    30     5     6   ar
    31     6     7   ar
    32     7     8   ar
    33     8     9   ar
    34    15    11    1
    35     9     1   ar
    36    26    20   ar
    37    33    29   ar
    38     8     4   ar
    39    37    35    1
    40    18    19    1
    41    27    28    1
    42    33    34    1
@<TRIPOS>MOLECULE
*****
 37 42 0 0 0
SMALL
GASTEIGER

@<TRIPOS>ATOM
      1 C         138.9404  141.0880  157.2593 C.ar    1  UNL1        0.2392
      2 N         137.5807  140.7763  156.7083 N.ar    1  UNL1       -0.1958
      3 C         136.8407  141.8077  155.9090 C.ar    1  UNL1        0.1539
      4 C         137.4607  143.1509  155.6609 C.ar    1  UNL1        0.1146
      5 C         136.9745  144.3584  154.9155 C.ar    1  UNL1        0.0236
      6 C         138.0340  145.4164  155.0059 C.ar    1  UNL1        0.0223
      7 C         139.1749  144.8628  155.8071 C.ar    1  UNL1        0.1006
      8 N         138.8205  143.4626  156.2119 N.ar    1  UNL1       -0.2229
      9 N         139.5604  142.4311  157.0111 N.ar    1  UNL1       -0.1294
     10 C         138.2605  140.6452  159.3495 C.3     1  UNL1        0.0293
     11 C         139.3650  139.6368  159.4636 C.3     1  UNL1        0.1293
     12 C         140.3554  138.5846  159.8663 C.3     1  UNL1        0.0289
     13 C         141.2828  138.3542  158.7102 C.3     1  UNL1        0.0237
     14 C         140.8657  139.2639  157.5928 C.3     1  UNL1        0.0941
     15 N         139.6804  140.0566  158.0585 N.pl3   1  UNL1       -0.2722
     16 C         138.8187  139.4278  160.8448 C.2     1  UNL1        0.2422
     17 O         137.3380  139.3167  161.0569 O.2     1  UNL1       -0.2731
     18 N         139.7533  139.3300  162.0141 N.am    1  UNL1       -0.2814
     19 H         140.7251  139.4030  161.8749 H       1  UNL1        0.1549
     20 C         139.2070  139.1211  163.3953 C.ar    1  UNL1        0.0699
     21 C         139.2172  137.7512  164.0066 C.ar    1  UNL1        0.0202
     22 C         138.6709  137.5423  165.3879 C.ar    1  UNL1        0.0510
     23 C         138.1144  138.7031  166.1579 C.ar    1  UNL1        0.2224
     24 F         137.5681  138.4941  167.5392 F       1  UNL1       -0.1832
     25 N         138.1042  140.0729  165.5466 N.ar    1  UNL1       -0.2151
     26 C         138.6505  140.2819  164.1653 C.ar    1  UNL1        0.1159
     27 N         135.4808  141.4959  155.3580 N.pl3   1  UNL1       -0.2825
     28 H         135.2077  141.8608  154.4854 H       1  UNL1        0.1550
     29 C         134.5370  140.6282  156.1366 C.ar    1  UNL1        0.1277
     30 C         133.1032  140.3539  155.7916 C.ar    1  UNL1        0.0502
     31 C         132.5415  139.4385  156.8386 C.ar    1  UNL1        0.0807
     32 N         133.6280  139.1470  157.8308 N.ar    1  UNL1       -0.1760
     33 N         134.8613  139.8822  157.3969 N.ar    1  UNL1       -0.2631
     34 H         135.7310  139.8763  157.8583 H       1  UNL1        0.1903
     35 C         131.1392  138.9078  156.8854 C.3     1  UNL1        0.0421
     36 C         130.0833  137.9802  156.3616 C.3     1  UNL1        0.0064
     37 C         129.7665  138.9161  157.4902 C.3     1  UNL1        0.0064
@<TRIPOS>BOND
     1    11    10    1
     2    11    16    1
     3    16    17    2
     4    16    18   am
     5    18    20    1
     6    20    21   ar
     7    21    22   ar
     8    22    23   ar
     9    23    24    1
    10    23    25   ar
    11    25    26   ar
    12    11    12    1
    13    12    13    1
    14    13    14    1
    15    14    15    1
    16    15     1    1
    17     1     2   ar
    18     2     3   ar
    19     3    27    1
    20    27    29    1
    21    29    30   ar
    22    30    31   ar
    23    31    35    1
    24    35    36    1
    25    36    37    1
    26    31    32   ar
    27    32    33   ar
    28     3     4   ar
    29     4     5   ar
    30     5     6   ar
    31     6     7   ar
    32     7     8   ar
    33     8     9   ar
    34    15    11    1
    35     9     1   ar
    36    26    20   ar
    37    33    29   ar
    38     8     4   ar
    39    37    35    1
    40    18    19    1
    41    27    28    1
    42    33    34    1
@<TRIPOS>MOLECULE
*****
 37 42 0 0 0
SMALL
GASTEIGER

@<TRIPOS>ATOM
      1 C         142.6715  142.5543  161.5364 C.ar    1  UNL1        0.2392
      2 N         141.5034  141.6276  161.3742 N.ar    1  UNL1       -0.1958
      3 C         140.4094  141.9622  160.4040 C.ar    1  UNL1        0.1539
      4 C         140.4838  143.2238  159.5959 C.ar    1  UNL1        0.1146
      5 C         139.5629  143.8139  158.5694 C.ar    1  UNL1        0.0236
      6 C         140.1620  145.1054  158.0971 C.ar    1  UNL1        0.0223
      7 C         141.4531  145.3135  158.8318 C.ar    1  UNL1        0.1006
      8 N         141.6520  144.1506  159.7581 N.ar    1  UNL1       -0.2229
      9 N         142.7459  143.8159  160.7283 N.ar    1  UNL1       -0.1294
     10 C         142.1550  142.2926  163.7025 C.3     1  UNL1        0.0293
     11 C         143.6012  142.0105  163.9829 C.3     1  UNL1        0.1293
     12 C         144.9500  141.6970  164.5595 C.3     1  UNL1        0.0289
     13 C         145.9479  141.7123  163.4397 C.3     1  UNL1        0.0237
     14 C         145.2158  142.0354  162.1709 C.3     1  UNL1        0.0941
     15 N         143.7655  142.2197  162.5067 N.pl3   1  UNL1       -0.2722
     16 C         143.1346  141.8603  165.4005 C.2     1  UNL1        0.2422
     17 O         143.6886  142.7530  166.4710 O.2     1  UNL1       -0.2731
     18 N         142.1138  140.8174  165.7476 N.am    1  UNL1       -0.2814
     19 H         141.7502  140.2315  165.0449 H       1  UNL1        0.1549
     20 C         141.6472  140.6672  167.1652 C.ar    1  UNL1        0.0699
     21 C         142.3247  139.6886  168.0781 C.ar    1  UNL1        0.0202
     22 C         141.8581  139.5384  169.4958 C.ar    1  UNL1        0.0510
     23 C         140.7139  140.3668  170.0005 C.ar    1  UNL1        0.2224
     24 F         140.2473  140.2167  171.4181 F       1  UNL1       -0.1832
     25 N         140.0364  141.3455  169.0875 N.ar    1  UNL1       -0.2151
     26 C         140.5031  141.4956  167.6699 C.ar    1  UNL1        0.1159
     27 N         139.2412  141.0353  160.2418 N.pl3   1  UNL1       -0.2825
     28 H         138.6420  141.1296  159.4664 H       1  UNL1        0.1550
     29 C         138.9860  139.9650  161.2612 C.ar    1  UNL1        0.1277
     30 C         138.8779  140.1669  162.7436 C.ar    1  UNL1        0.0502
     31 C         138.6192  138.8314  163.3756 C.ar    1  UNL1        0.0807
     32 N         138.5674  137.8041  162.2839 N.ar    1  UNL1       -0.1760
     33 N         138.7942  138.5047  160.9770 N.ar    1  UNL1       -0.2631
     34 H         138.8136  138.0805  160.0888 H       1  UNL1        0.1903
     35 C         138.4431  138.5691  164.8420 C.3     1  UNL1        0.0421
     36 C         138.1680  139.0729  166.2278 C.3     1  UNL1        0.0064
     37 C         138.4133  137.6113  165.9960 C.3     1  UNL1        0.0064
@<TRIPOS>BOND
     1    11    10    1
     2    11    16    1
     3    16    17    2
     4    16    18   am
     5    18    20    1
     6    20    21   ar
     7    21    22   ar
     8    22    23   ar
     9    23    24    1
    10    23    25   ar
    11    25    26   ar
    12    11    12    1
    13    12    13    1
    14    13    14    1
    15    14    15    1
    16    15     1    1
    17     1     2   ar
    18     2     3   ar
    19     3    27    1
    20    27    29    1
    21    29    30   ar
    22    30    31   ar
    23    31    35    1
    24    35    36    1
    25    36    37    1
    26    31    32   ar
    27    32    33   ar
    28     3     4   ar
    29     4     5   ar
    30     5     6   ar
    31     6     7   ar
    32     7     8   ar
    33     8     9   ar
    34    15    11    1
    35     9     1   ar
    36    26    20   ar
    37    33    29   ar
    38     8     4   ar
    39    37    35    1
    40    18    19    1
    41    27    28    1
    42    33    34    1
@<TRIPOS>MOLECULE
*****
 37 42 0 0 0
SMALL
GASTEIGER

@<TRIPOS>ATOM
      1 C         141.0509  141.8094  160.2104 C.ar    1  UNL1        0.2392
      2 N         140.3979  140.5910  160.7925 N.ar    1  UNL1       -0.1958
      3 C         140.6605  139.2408  160.1939 C.ar    1  UNL1        0.1539
      4 C         141.5762  139.1092  159.0132 C.ar    1  UNL1        0.1146
      5 C         142.0214  137.9191  158.2161 C.ar    1  UNL1        0.0236
      6 C         142.9496  138.4021  157.1413 C.ar    1  UNL1        0.0223
      7 C         143.0781  139.8906  157.2741 C.ar    1  UNL1        0.1006
      8 N         142.2293  140.3277  158.4310 N.ar    1  UNL1       -0.2229
      9 N         141.9666  141.6778  159.0297 N.ar    1  UNL1       -0.1294
     10 C         141.4745  142.1289  162.3889 C.3     1  UNL1        0.0293
     11 C         141.0129  143.5482  162.2402 C.3     1  UNL1        0.1293
     12 C         140.6184  144.9870  162.3971 C.3     1  UNL1        0.0289
     13 C         140.1500  145.4873  161.0629 C.3     1  UNL1        0.0237
     14 C         140.2550  144.3579  160.0813 C.3     1  UNL1        0.0941
     15 N         140.7883  143.1595  160.8090 N.pl3   1  UNL1       -0.2722
     16 C         141.3340  143.6403  163.7025 C.2     1  UNL1        0.2422
     17 O         141.7153  144.9598  164.3051 O.2     1  UNL1       -0.2731
     18 N         141.2738  142.4126  164.5623 N.am    1  UNL1       -0.2814
     19 H         141.0235  141.5465  164.1668 H       1  UNL1        0.1549
     20 C         141.5948  142.5046  166.0246 C.ar    1  UNL1        0.0699
     21 C         140.4934  142.7039  167.0233 C.ar    1  UNL1        0.0202
     22 C         140.8145  142.7959  168.4856 C.ar    1  UNL1        0.0510
     23 C         142.2370  142.6886  168.9493 C.ar    1  UNL1        0.2224
     24 F         142.5581  142.7807  170.4117 F       1  UNL1       -0.1832
     25 N         143.3384  142.4893  167.9507 N.ar    1  UNL1       -0.2151
     26 C         143.0173  142.3973  166.4884 C.ar    1  UNL1        0.1159
     27 N         140.0074  138.0224  160.7761 N.pl3   1  UNL1       -0.2825
     28 H         139.5850  137.3596  160.1833 H       1  UNL1        0.1550
     29 C         139.9978  137.8139  162.2615 C.ar    1  UNL1        0.1277
     30 C         138.9183  138.2518  163.2064 C.ar    1  UNL1        0.0502
     31 C         139.3195  137.8394  164.5916 C.ar    1  UNL1        0.0807
     32 N         140.6470  137.1468  164.5029 N.ar    1  UNL1       -0.1760
     33 N         141.0662  137.1310  163.0628 N.ar    1  UNL1       -0.2631
     34 H         141.8968  136.7409  162.7061 H       1  UNL1        0.1903
     35 C         138.5315  138.0779  165.8456 C.3     1  UNL1        0.0421
     36 C         138.1962  138.9428  167.0243 C.3     1  UNL1        0.0064
     37 C         137.5021  137.6260  166.8387 C.3     1  UNL1        0.0064
@<TRIPOS>BOND
     1    11    10    1
     2    11    16    1
     3    16    17    2
     4    16    18   am
     5    18    20    1
     6    20    21   ar
     7    21    22   ar
     8    22    23   ar
     9    23    24    1
    10    23    25   ar
    11    25    26   ar
    12    11    12    1
    13    12    13    1
    14    13    14    1
    15    14    15    1
    16    15     1    1
    17     1     2   ar
    18     2     3   ar
    19     3    27    1
    20    27    29    1
    21    29    30   ar
    22    30    31   ar
    23    31    35    1
    24    35    36    1
    25    36    37    1
    26    31    32   ar
    27    32    33   ar
    28     3     4   ar
    29     4     5   ar
    30     5     6   ar
    31     6     7   ar
    32     7     8   ar
    33     8     9   ar
    34    15    11    1
    35     9     1   ar
    36    26    20   ar
    37    33    29   ar
    38     8     4   ar
    39    37    35    1
    40    18    19    1
    41    27    28    1
    42    33    34    1
@<TRIPOS>MOLECULE
*****
 37 42 0 0 0
SMALL
GASTEIGER

@<TRIPOS>ATOM
      1 C         140.3232  144.1318  159.5789 C.ar    1  UNL1        0.2392
      2 N         141.7517  144.0800  160.0333 N.ar    1  UNL1       -0.1958
      3 C         142.0843  144.2633  161.4844 C.ar    1  UNL1        0.1539
      4 C         140.9883  144.4984  162.4811 C.ar    1  UNL1        0.1146
      5 C         141.0106  144.7122  163.9657 C.ar    1  UNL1        0.0236
      6 C         139.5957  144.8961  164.4287 C.ar    1  UNL1        0.0223
      7 C         138.6991  144.7960  163.2304 C.ar    1  UNL1        0.1006
      8 N         139.5597  144.5502  162.0267 N.ar    1  UNL1       -0.2229
      9 N         139.2272  144.3669  160.5756 N.ar    1  UNL1       -0.1294
     10 C         140.3481  145.9211  158.2279 C.3     1  UNL1        0.0293
     11 C         139.9589  145.0284  157.0872 C.3     1  UNL1        0.1293
     12 C         139.5799  144.4003  155.7787 C.3     1  UNL1        0.0289
     13 C         139.3775  142.9322  156.0106 C.3     1  UNL1        0.0237
     14 C         139.6313  142.6530  157.4624 C.3     1  UNL1        0.0941
     15 N         139.9906  143.9485  158.1277 N.pl3   1  UNL1       -0.2722
     16 C         140.0085  146.2950  156.2851 C.2     1  UNL1        0.2422
     17 O         141.1310  146.5264  155.3175 O.2     1  UNL1       -0.2731
     18 N         138.9356  147.3300  156.4506 N.am    1  UNL1       -0.2814
     19 H         138.1988  147.1781  157.0857 H       1  UNL1        0.1549
     20 C         138.9853  148.5966  155.6485 C.ar    1  UNL1        0.0699
     21 C         138.4713  149.8774  156.2365 C.ar    1  UNL1        0.0202
     22 C         138.5209  151.1439  155.4344 C.ar    1  UNL1        0.0510
     23 C         139.0846  151.1298  154.0444 C.ar    1  UNL1        0.2224
     24 F         139.1342  152.3963  153.2423 F       1  UNL1       -0.1832
     25 N         139.5986  149.8490  153.4564 N.ar    1  UNL1       -0.2151
     26 C         139.5489  148.5825  154.2585 C.ar    1  UNL1        0.1159
     27 N         143.5129  144.2115  161.9388 N.pl3   1  UNL1       -0.2825
     28 H         144.0837  145.0098  161.8603 H       1  UNL1        0.1550
     29 C         144.0719  142.9434  162.5127 C.ar    1  UNL1        0.1277
     30 C         143.3328  141.9665  163.3784 C.ar    1  UNL1        0.0502
     31 C         144.2722  140.8489  163.7224 C.ar    1  UNL1        0.0807
     32 N         145.5920  141.1351  163.0695 N.ar    1  UNL1       -0.1760
     33 N         145.4681  142.4296  162.3218 N.ar    1  UNL1       -0.2631
     34 H         146.1786  142.8655  161.7978 H       1  UNL1        0.1903
     35 C         143.9488  139.6547  164.5706 C.3     1  UNL1        0.0421
     36 C         142.9930  138.5748  164.9828 C.3     1  UNL1        0.0064
     37 C         144.3444  138.6663  165.6272 C.3     1  UNL1        0.0064
@<TRIPOS>BOND
     1    11    10    1
     2    11    16    1
     3    16    17    2
     4    16    18   am
     5    18    20    1
     6    20    21   ar
     7    21    22   ar
     8    22    23   ar
     9    23    24    1
    10    23    25   ar
    11    25    26   ar
    12    11    12    1
    13    12    13    1
    14    13    14    1
    15    14    15    1
    16    15     1    1
    17     1     2   ar
    18     2     3   ar
    19     3    27    1
    20    27    29    1
    21    29    30   ar
    22    30    31   ar
    23    31    35    1
    24    35    36    1
    25    36    37    1
    26    31    32   ar
    27    32    33   ar
    28     3     4   ar
    29     4     5   ar
    30     5     6   ar
    31     6     7   ar
    32     7     8   ar
    33     8     9   ar
    34    15    11    1
    35     9     1   ar
    36    26    20   ar
    37    33    29   ar
    38     8     4   ar
    39    37    35    1
    40    18    19    1
    41    27    28    1
    42    33    34    1
