@<TRIPOS>MOLECULE
*****
 34 39 0 0 0
SMALL
GASTEIGER

@<TRIPOS>ATOM
      1 C         142.5785  137.8806  157.3232 C.ar    1  UNL1        0.1028
      2 C         142.7637  138.4925  155.9663 C.ar    1  UNL1        0.0131
      3 C         142.4547  139.9443  155.7496 C.ar    1  UNL1       -0.0015
      4 C         141.9441  141.0575  156.6815 C.ar    1  UNL1        0.0035
      5 C         142.1106  139.7252  157.3501 C.ar    1  UNL1        0.0358
      6 C         142.0843  138.7204  158.4635 C.ar    1  UNL1        0.1545
      7 O         141.8691  138.1965  159.8524 O.3     1  UNL1       -0.4528
      8 C         141.4978  138.2328  161.3054 C.ar    1  UNL1        0.1453
      9 C         141.4297  137.1585  162.6565 C.ar    1  UNL1        0.0406
     10 C         141.0179  137.3857  164.0808 C.ar    1  UNL1        0.0398
     11 C         140.5673  138.7463  164.5232 C.ar    1  UNL1        0.1363
     12 C         140.5283  139.8803  163.5422 C.ar    1  UNL1        0.0329
     13 C         141.0271  138.8241  162.6009 C.ar    1  UNL1        0.0378
     14 C         140.0777  141.2406  163.9856 C.3     1  UNL1        0.1046
     15 C         139.6660  141.4669  165.4101 C.3     1  UNL1        0.0718
     16 C         139.7050  140.3329  166.3912 C.3     1  UNL1        0.2075
     17 O         140.1557  138.9726  165.9478 O.3     1  UNL1       -0.4757
     18 N         139.7437  142.6978  163.8637 N.am    1  UNL1       -0.2761
     19 C         139.2515  143.8648  164.6675 C.3     1  UNL1        0.0956
     20 C         139.1801  145.0562  163.7590 C.3     1  UNL1        0.0466
     21 C         139.6035  145.0349  162.0816 C.3     1  UNL1        0.1337
     22 N         139.8187  145.5590  160.6927 N.3     1  UNL1       -0.2863
     23 C         140.1899  145.5225  159.2398 C.3     1  UNL1        0.1151
     24 C         140.6607  144.9313  157.9442 C.ar    1  UNL1        0.0739
     25 C         140.5317  146.2132  157.1760 C.ar    1  UNL1        0.1147
     26 N         140.9506  145.9492  155.7601 N.ar    1  UNL1       -0.2226
     27 C         141.3386  144.5042  155.6532 C.ar    1  UNL1        0.1786
     28 N         141.1594  143.8751  157.0030 N.ar    1  UNL1       -0.3070
     29 C         141.6101  142.5148  156.5596 C.3     1  UNL1        0.1341
     30 C         139.5772  144.0303  163.1952 C.2     1  UNL1        0.2401
     31 O         139.3315  144.3101  163.9000 O.2     1  UNL1       -0.2734
     32 H         140.4469  146.3192  160.9528 H       1  UNL1        0.1240
     33 N         143.1965  134.9771  157.7564 N.1     1  UNL1       -0.1907
     34 C         142.8875  136.4289  157.5399 C.1     1  UNL1        0.1035
@<TRIPOS>BOND
     1    33    34    3
     2    34     1    1
     3     1     2   ar
     4     2     3   ar
     5     3     4   ar
     6     4     5   ar
     7     5     6   ar
     8     6     7    1
     9     7     8    1
    10     8     9   ar
    11     9    10   ar
    12    10    11   ar
    13    11    12   ar
    14    12    13   ar
    15    12    14    1
    16    14    15    1
    17    15    16    1
    18    16    17    1
    19    14    18    1
    20    18    19    1
    21    19    20    1
    22    21    20    1
    23    21    22    1
    24    22    23    1
    25    23    24    1
    26    24    25   ar
    27    25    26   ar
    28    26    27   ar
    29    27    28   ar
    30    28    29    1
    31    21    30    1
    32    30    31    2
    33     6     1   ar
    34    13     8   ar
    35    30    18   am
    36    29     4    1
    37    17    11    1
    38    28    24   ar
    39    22    32    1
@<TRIPOS>MOLECULE
*****
 34 39 0 0 0
SMALL
GASTEIGER

@<TRIPOS>ATOM
      1 C         139.6020  146.9838  156.3125 C.ar    1  UNL1        0.1028
      2 C         139.7646  146.8422  154.8282 C.ar    1  UNL1        0.0131
      3 C         140.4858  145.6549  154.2624 C.ar    1  UNL1       -0.0015
      4 C         141.1616  144.4330  154.9095 C.ar    1  UNL1        0.0035
      5 C         140.5522  145.3895  155.8912 C.ar    1  UNL1        0.0358
      6 C         140.1607  145.9380  157.2313 C.ar    1  UNL1        0.1545
      7 O         140.0469  145.9949  158.7259 O.3     1  UNL1       -0.4528
      8 C         140.2280  145.5516  160.1474 C.ar    1  UNL1        0.1453
      9 C         139.8273  146.0926  161.7384 C.ar    1  UNL1        0.0406
     10 C         140.1032  145.4932  163.0855 C.ar    1  UNL1        0.0398
     11 C         140.8513  144.1973  163.1908 C.ar    1  UNL1        0.1363
     12 C         141.3239  143.5001  161.9496 C.ar    1  UNL1        0.0329
     13 C         140.6764  144.6755  161.2794 C.ar    1  UNL1        0.0378
     14 C         142.0720  142.2043  162.0560 C.3     1  UNL1        0.1046
     15 C         142.3474  141.6057  163.4035 C.3     1  UNL1        0.0718
     16 C         141.8748  142.3029  164.6446 C.3     1  UNL1        0.2075
     17 O         141.1268  143.5987  164.5383 O.3     1  UNL1       -0.4757
     18 N         142.8066  140.9853  161.5822 N.am    1  UNL1       -0.2761
     19 C         143.4957  139.7536  162.0902 C.3     1  UNL1        0.0956
     20 C         144.0059  138.9864  160.9066 C.3     1  UNL1        0.0466
     21 C         143.8075  139.4803  159.2604 C.3     1  UNL1        0.1337
     22 N         143.9213  139.4234  157.7658 N.3     1  UNL1       -0.2863
     23 C         143.7403  139.8668  156.3443 C.3     1  UNL1        0.1151
     24 C         143.2918  140.7428  155.2122 C.ar    1  UNL1        0.0739
     25 C         143.8642  139.8579  154.1448 C.ar    1  UNL1        0.1147
     26 N         143.5704  140.4865  152.8150 N.ar    1  UNL1       -0.2226
     27 C         142.8165  141.7598  153.0605 C.ar    1  UNL1        0.1786
     28 N         142.6443  141.9182  154.5421 N.ar    1  UNL1       -0.3070
     29 C         141.8962  143.2141  154.4358 C.3     1  UNL1        0.1341
     30 C         143.4161  140.0288  160.6006 C.2     1  UNL1        0.2401
     31 O         143.6386  139.5882  161.2265 O.2     1  UNL1       -0.2734
     32 H         143.4990  138.5018  157.6534 H       1  UNL1        0.1240
     33 N         138.1596  149.3585  157.4440 N.1     1  UNL1       -0.1907
     34 C         138.8808  148.1711  156.8783 C.1     1  UNL1        0.1035
@<TRIPOS>BOND
     1    33    34    3
     2    34     1    1
     3     1     2   ar
     4     2     3   ar
     5     3     4   ar
     6     4     5   ar
     7     5     6   ar
     8     6     7    1
     9     7     8    1
    10     8     9   ar
    11     9    10   ar
    12    10    11   ar
    13    11    12   ar
    14    12    13   ar
    15    12    14    1
    16    14    15    1
    17    15    16    1
    18    16    17    1
    19    14    18    1
    20    18    19    1
    21    19    20    1
    22    21    20    1
    23    21    22    1
    24    22    23    1
    25    23    24    1
    26    24    25   ar
    27    25    26   ar
    28    26    27   ar
    29    27    28   ar
    30    28    29    1
    31    21    30    1
    32    30    31    2
    33     6     1   ar
    34    13     8   ar
    35    30    18   am
    36    29     4    1
    37    17    11    1
    38    28    24   ar
    39    22    32    1
@<TRIPOS>MOLECULE
*****
 34 39 0 0 0
SMALL
GASTEIGER

@<TRIPOS>ATOM
      1 C         140.1619  144.6129  156.4358 C.ar    1  UNL1        0.1028
      2 C         140.4545  143.9668  155.1142 C.ar    1  UNL1        0.0131
      3 C         140.9574  142.5544  155.0648 C.ar    1  UNL1       -0.0015
      4 C         141.2731  141.5156  156.1554 C.ar    1  UNL1        0.0035
      5 C         140.7816  142.8306  156.6836 C.ar    1  UNL1        0.0358
      6 C         140.3722  143.8468  157.7082 C.ar    1  UNL1        0.1545
      7 O         140.1072  144.4093  159.0732 O.3     1  UNL1       -0.4528
      8 C         140.0269  144.4326  160.5709 C.ar    1  UNL1        0.1453
      9 C         139.5789  145.5256  161.8314 C.ar    1  UNL1        0.0406
     10 C         139.5647  145.3632  163.3225 C.ar    1  UNL1        0.0398
     11 C         139.9950  144.0655  163.9397 C.ar    1  UNL1        0.1363
     12 C         140.4395  142.9297  163.0666 C.ar    1  UNL1        0.0329
     13 C         140.1436  143.9130  161.9731 C.ar    1  UNL1        0.0378
     14 C         140.8696  141.6323  163.6847 C.3     1  UNL1        0.1046
     15 C         140.8551  141.4708  165.1759 C.3     1  UNL1        0.0718
     16 C         140.4105  142.6066  166.0490 C.3     1  UNL1        0.2075
     17 O         139.9805  143.9040  165.4309 O.3     1  UNL1       -0.4757
     18 N         141.3683  140.2185  163.7334 N.am    1  UNL1       -0.2761
     19 C         141.7103  139.1226  164.6988 C.3     1  UNL1        0.0956
     20 C         142.1696  137.9342  163.9072 C.3     1  UNL1        0.0466
     21 C         142.2692  137.8873  162.1806 C.3     1  UNL1        0.1337
     22 N         142.5342  137.3248  160.8155 N.3     1  UNL1       -0.2863
     23 C         142.6145  137.3015  159.3179 C.3     1  UNL1        0.1151
     24 C         142.4978  137.8211  157.9155 C.ar    1  UNL1        0.0739
     25 C         142.9786  136.5508  157.2790 C.ar    1  UNL1        0.1147
     26 N         142.9799  136.7491  155.7922 N.ar    1  UNL1       -0.2226
     27 C         142.4999  138.1419  155.5098 C.ar    1  UNL1        0.1786
     28 N         142.2019  138.8044  156.8221 N.ar    1  UNL1       -0.3070
     29 C         141.7719  140.1018  156.2040 C.3     1  UNL1        0.1341
     30 C         141.8598  138.9034  163.2052 C.2     1  UNL1        0.2401
     31 O         141.9092  138.6612  163.9631 O.2     1  UNL1       -0.2734
     32 H         141.9360  136.5042  160.9112 H       1  UNL1        0.1240
     33 N         139.1560  147.4375  156.5348 N.1     1  UNL1       -0.1907
     34 C         139.6590  146.0253  156.4853 C.1     1  UNL1        0.1035
@<TRIPOS>BOND
     1    33    34    3
     2    34     1    1
     3     1     2   ar
     4     2     3   ar
     5     3     4   ar
     6     4     5   ar
     7     5     6   ar
     8     6     7    1
     9     7     8    1
    10     8     9   ar
    11     9    10   ar
    12    10    11   ar
    13    11    12   ar
    14    12    13   ar
    15    12    14    1
    16    14    15    1
    17    15    16    1
    18    16    17    1
    19    14    18    1
    20    18    19    1
    21    19    20    1
    22    21    20    1
    23    21    22    1
    24    22    23    1
    25    23    24    1
    26    24    25   ar
    27    25    26   ar
    28    26    27   ar
    29    27    28   ar
    30    28    29    1
    31    21    30    1
    32    30    31    2
    33     6     1   ar
    34    13     8   ar
    35    30    18   am
    36    29     4    1
    37    17    11    1
    38    28    24   ar
    39    22    32    1
@<TRIPOS>MOLECULE
*****
 34 39 0 0 0
SMALL
GASTEIGER

@<TRIPOS>ATOM
      1 C         142.9177  138.6096  155.5529 C.ar    1  UNL1        0.1028
      2 C         142.5440  139.1647  154.2105 C.ar    1  UNL1        0.0131
      3 C         141.9346  140.5315  154.1073 C.ar    1  UNL1       -0.0015
      4 C         141.5687  141.5977  155.1550 C.ar    1  UNL1        0.0035
      5 C         142.1713  140.3511  155.7318 C.ar    1  UNL1        0.0358
      6 C         142.6821  139.4212  156.7922 C.ar    1  UNL1        0.1545
      7 O         143.0231  138.9495  158.1746 O.3     1  UNL1       -0.4528
      8 C         143.1425  139.0079  159.6688 C.ar    1  UNL1        0.1453
      9 C         143.7035  138.0162  160.9673 C.ar    1  UNL1        0.0406
     10 C         143.7427  138.2542  162.4477 C.ar    1  UNL1        0.0398
     11 C         143.2312  139.5458  163.0135 C.ar    1  UNL1        0.1363
     12 C         142.6802  140.6000  162.0997 C.ar    1  UNL1        0.0329
     13 C         143.0221  139.5875  161.0470 C.ar    1  UNL1        0.0378
     14 C         142.1689  141.8913  162.6663 C.3     1  UNL1        0.1046
     15 C         142.2086  142.1284  164.1470 C.3     1  UNL1        0.0718
     16 C         142.7596  141.0743  165.0608 C.3     1  UNL1        0.2075
     17 O         143.2709  139.7830  164.4941 O.3     1  UNL1       -0.4757
     18 N         141.5660  143.2648  162.6608 N.am    1  UNL1       -0.2761
     19 C         141.1665  144.3796  163.5815 C.3     1  UNL1        0.0956
     20 C         140.5989  145.4891  162.7469 C.3     1  UNL1        0.0466
     21 C         140.4526  145.4413  161.0236 C.3     1  UNL1        0.1337
     22 N         140.1116  145.9130  159.6411 N.3     1  UNL1       -0.2863
     23 C         139.9922  145.8546  158.1470 C.3     1  UNL1        0.1151
     24 C         140.1126  145.2750  156.7687 C.ar    1  UNL1        0.0739
     25 C         139.5212  146.4723  156.0855 C.ar    1  UNL1        0.1147
     26 N         139.4976  146.1997  154.6107 N.ar    1  UNL1       -0.2226
     27 C         140.0744  144.8340  154.3824 C.ar    1  UNL1        0.1786
     28 N         140.4545  144.2625  155.7161 N.ar    1  UNL1       -0.3070
     29 C         140.9658  142.9712  155.1494 C.3     1  UNL1        0.1341
     30 C         140.9633  144.5114  162.0840 C.2     1  UNL1        0.2401
     31 O         140.9148  144.7872  162.8303 O.2     1  UNL1       -0.2734
     32 H         140.6483  146.7795  159.6797 H       1  UNL1        0.1240
     33 N         144.1366  135.8761  155.7595 N.1     1  UNL1       -0.1907
     34 C         143.5271  137.2428  155.6562 C.1     1  UNL1        0.1035
@<TRIPOS>BOND
     1    33    34    3
     2    34     1    1
     3     1     2   ar
     4     2     3   ar
     5     3     4   ar
     6     4     5   ar
     7     5     6   ar
     8     6     7    1
     9     7     8    1
    10     8     9   ar
    11     9    10   ar
    12    10    11   ar
    13    11    12   ar
    14    12    13   ar
    15    12    14    1
    16    14    15    1
    17    15    16    1
    18    16    17    1
    19    14    18    1
    20    18    19    1
    21    19    20    1
    22    21    20    1
    23    21    22    1
    24    22    23    1
    25    23    24    1
    26    24    25   ar
    27    25    26   ar
    28    26    27   ar
    29    27    28   ar
    30    28    29    1
    31    21    30    1
    32    30    31    2
    33     6     1   ar
    34    13     8   ar
    35    30    18   am
    36    29     4    1
    37    17    11    1
    38    28    24   ar
    39    22    32    1
@<TRIPOS>MOLECULE
*****
 34 39 0 0 0
SMALL
GASTEIGER

@<TRIPOS>ATOM
      1 C         145.4080  142.5006  157.3274 C.ar    1  UNL1        0.1028
      2 C         144.9291  142.4909  155.9060 C.ar    1  UNL1        0.0131
      3 C         143.4910  142.1929  155.6010 C.ar    1  UNL1       -0.0015
      4 C         142.2777  141.8640  156.4888 C.ar    1  UNL1        0.0035
      5 C         143.5503  142.0944  157.2486 C.ar    1  UNL1        0.0358
      6 C         144.4488  142.2124  158.4440 C.ar    1  UNL1        0.1545
      7 O         144.8361  142.1999  159.8930 O.3     1  UNL1       -0.4528
      8 C         144.6534  142.0590  161.3752 C.ar    1  UNL1        0.1453
      9 C         145.5979  142.1704  162.8174 C.ar    1  UNL1        0.0406
     10 C         145.2261  141.9903  164.2593 C.ar    1  UNL1        0.0398
     11 C         143.8134  141.6520  164.6330 C.ar    1  UNL1        0.1363
     12 C         142.7717  141.4936  163.5654 C.ar    1  UNL1        0.0329
     13 C         143.9284  141.8109  162.6647 C.ar    1  UNL1        0.0378
     14 C         141.3592  141.1552  163.9401 C.3     1  UNL1        0.1046
     15 C         140.9883  140.9752  165.3823 C.3     1  UNL1        0.0718
     16 C         142.0300  141.1337  166.4499 C.3     1  UNL1        0.2075
     17 O         143.4426  141.4720  166.0752 O.3     1  UNL1       -0.4757
     18 N         139.9060  140.8474  163.7316 N.am    1  UNL1       -0.2761
     19 C         138.6516  140.5183  164.4855 C.3     1  UNL1        0.0956
     20 C         137.5448  140.3407  163.4888 C.3     1  UNL1        0.0466
     21 C         137.7349  140.4989  161.7765 C.3     1  UNL1        0.1337
     22 N         137.3476  140.5114  160.3273 N.3     1  UNL1       -0.2863
     23 C         137.5303  140.6524  158.8452 C.3     1  UNL1        0.1151
     24 C         138.2552  140.9004  157.5556 C.ar    1  UNL1        0.0739
     25 C         137.0434  140.6901  156.6971 C.ar    1  UNL1        0.1147
     26 N         137.4512  140.8775  155.2658 N.ar    1  UNL1       -0.2226
     27 C         138.9151  141.2036  155.2398 C.ar    1  UNL1        0.1786
     28 N         139.4120  141.2178  156.6550 N.ar    1  UNL1       -0.3070
     29 C         140.8246  141.5561  156.2804 C.3     1  UNL1        0.1341
     30 C         138.6333  140.6169  162.9719 C.2     1  UNL1        0.2401
     31 O         138.2809  140.4911  163.6758 O.2     1  UNL1       -0.2734
     32 H         136.5943  141.1934  160.4156 H       1  UNL1        0.1240
     33 N         148.2842  143.0966  157.9373 N.1     1  UNL1       -0.1907
     34 C         146.8462  142.7986  157.6323 C.1     1  UNL1        0.1035
@<TRIPOS>BOND
     1    33    34    3
     2    34     1    1
     3     1     2   ar
     4     2     3   ar
     5     3     4   ar
     6     4     5   ar
     7     5     6   ar
     8     6     7    1
     9     7     8    1
    10     8     9   ar
    11     9    10   ar
    12    10    11   ar
    13    11    12   ar
    14    12    13   ar
    15    12    14    1
    16    14    15    1
    17    15    16    1
    18    16    17    1
    19    14    18    1
    20    18    19    1
    21    19    20    1
    22    21    20    1
    23    21    22    1
    24    22    23    1
    25    23    24    1
    26    24    25   ar
    27    25    26   ar
    28    26    27   ar
    29    27    28   ar
    30    28    29    1
    31    21    30    1
    32    30    31    2
    33     6     1   ar
    34    13     8   ar
    35    30    18   am
    36    29     4    1
    37    17    11    1
    38    28    24   ar
    39    22    32    1
@<TRIPOS>MOLECULE
*****
 34 39 0 0 0
SMALL
GASTEIGER

@<TRIPOS>ATOM
      1 C         140.6039  145.4545  154.9555 C.ar    1  UNL1        0.1028
      2 C         140.1672  146.6489  155.7507 C.ar    1  UNL1        0.0131
      3 C         140.0715  146.5609  157.2451 C.ar    1  UNL1       -0.0015
      4 C         140.3422  145.4250  158.2475 C.ar    1  UNL1        0.0035
      5 C         140.5771  145.0487  156.8147 C.ar    1  UNL1        0.0358
      6 C         140.9451  144.1719  155.6545 C.ar    1  UNL1        0.1545
      7 O         141.3902  142.9283  154.9439 O.3     1  UNL1       -0.4528
      8 C         141.8446  141.5069  154.7907 C.ar    1  UNL1        0.1453
      9 C         142.2884  140.4133  153.5292 C.ar    1  UNL1        0.0406
     10 C         142.7302  138.9805  153.5726 C.ar    1  UNL1        0.0398
     11 C         142.8428  138.2699  154.8888 C.ar    1  UNL1        0.1363
     12 C         142.5138  138.9912  156.1621 C.ar    1  UNL1        0.0329
     13 C         142.2391  140.1245  155.2185 C.ar    1  UNL1        0.0378
     14 C         142.6267  138.2797  157.4778 C.3     1  UNL1        0.1046
     15 C         143.0686  136.8469  157.5202 C.3     1  UNL1        0.0718
     16 C         143.3976  136.1256  156.2468 C.3     1  UNL1        0.2075
     17 O         143.2847  136.8371  154.9311 O.3     1  UNL1       -0.4757
     18 N         142.5607  138.0984  158.9654 N.am    1  UNL1       -0.2761
     19 C         142.7901  137.0761  160.0388 C.3     1  UNL1        0.0956
     20 C         142.4828  137.7149  161.3606 C.3     1  UNL1        0.0466
     21 C         141.9577  139.3515  161.5584 C.3     1  UNL1        0.1337
     22 N         141.5126  140.5952  162.2691 N.3     1  UNL1       -0.2863
     23 C         141.0582  142.0165  162.4222 C.3     1  UNL1        0.1151
     24 C         140.6636  143.3990  161.9944 C.ar    1  UNL1        0.0739
     25 C         140.3985  143.8826  163.3893 C.ar    1  UNL1        0.1147
     26 N         139.9600  145.3148  163.3078 N.ar    1  UNL1       -0.2226
     27 C         139.9541  145.7163  161.8625 C.ar    1  UNL1        0.1786
     28 N         140.3890  144.5322  161.0508 N.ar    1  UNL1       -0.3070
     29 C         140.2761  145.2437  159.7351 C.3     1  UNL1        0.1341
     30 C         142.3258  138.4747  160.3983 C.2     1  UNL1        0.2401
     31 O         142.5412  137.7312  160.5888 O.2     1  UNL1       -0.2734
     32 H         142.3148  140.6630  162.8954 H       1  UNL1        0.1240
     33 N         140.7952  145.6303  151.9668 N.1     1  UNL1       -0.1907
     34 C         140.6995  145.5424  153.4611 C.1     1  UNL1        0.1035
@<TRIPOS>BOND
     1    33    34    3
     2    34     1    1
     3     1     2   ar
     4     2     3   ar
     5     3     4   ar
     6     4     5   ar
     7     5     6   ar
     8     6     7    1
     9     7     8    1
    10     8     9   ar
    11     9    10   ar
    12    10    11   ar
    13    11    12   ar
    14    12    13   ar
    15    12    14    1
    16    14    15    1
    17    15    16    1
    18    16    17    1
    19    14    18    1
    20    18    19    1
    21    19    20    1
    22    21    20    1
    23    21    22    1
    24    22    23    1
    25    23    24    1
    26    24    25   ar
    27    25    26   ar
    28    26    27   ar
    29    27    28   ar
    30    28    29    1
    31    21    30    1
    32    30    31    2
    33     6     1   ar
    34    13     8   ar
    35    30    18   am
    36    29     4    1
    37    17    11    1
    38    28    24   ar
    39    22    32    1
@<TRIPOS>MOLECULE
*****
 34 39 0 0 0
SMALL
GASTEIGER

@<TRIPOS>ATOM
      1 C         141.1291  143.8549  162.6423 C.ar    1  UNL1        0.1028
      2 C         140.6448  145.2735  162.5901 C.ar    1  UNL1        0.0131
      3 C         140.2941  145.8984  161.2723 C.ar    1  UNL1       -0.0015
      4 C         140.3170  145.3752  159.8251 C.ar    1  UNL1        0.0035
      5 C         140.7638  144.3730  160.8477 C.ar    1  UNL1        0.0358
      6 C         141.2628  143.0609  161.3767 C.ar    1  UNL1        0.1545
      7 O         141.7378  141.6390  161.3311 O.3     1  UNL1       -0.4528
      8 C         142.1168  140.3233  160.7182 C.ar    1  UNL1        0.1453
      9 C         142.6929  138.7739  161.2199 C.ar    1  UNL1        0.0406
     10 C         143.0257  137.5405  160.4338 C.ar    1  UNL1        0.0398
     11 C         142.8686  137.5369  158.9420 C.ar    1  UNL1        0.1363
     12 C         142.3788  138.7660  158.2355 C.ar    1  UNL1        0.0329
     13 C         142.3418  139.3145  159.6312 C.ar    1  UNL1        0.0378
     14 C         142.2220  138.7613  156.7437 C.3     1  UNL1        0.1046
     15 C         142.5551  137.5275  155.9584 C.3     1  UNL1        0.0718
     16 C         143.0449  136.2984  156.6650 C.3     1  UNL1        0.2075
     17 O         143.2017  136.3030  158.1568 O.3     1  UNL1       -0.4757
     18 N         141.8954  139.3013  155.3829 N.am    1  UNL1       -0.2761
     19 C         141.8734  138.9108  153.9348 C.3     1  UNL1        0.0956
     20 C         141.3913  140.0906  153.1439 C.3     1  UNL1        0.0466
     21 C         140.9496  141.6156  153.8314 C.3     1  UNL1        0.1337
     22 N         140.4745  143.0376  153.8769 N.3     1  UNL1       -0.2863
     23 C         140.0956  144.3532  154.4899 C.3     1  UNL1        0.1151
     24 C         139.8705  145.3620  155.5769 C.ar    1  UNL1        0.0739
     25 C         139.4074  146.4403  154.6426 C.ar    1  UNL1        0.1147
     26 N         139.0843  147.6552  155.4609 N.ar    1  UNL1       -0.2226
     27 C         139.3476  147.3278  156.9009 C.ar    1  UNL1        0.1786
     28 N         139.8336  145.9105  156.9725 N.ar    1  UNL1       -0.3070
     29 C         139.9904  145.9151  158.4643 C.3     1  UNL1        0.1341
     30 C         141.4486  140.3035  154.3602 C.2     1  UNL1        0.2401
     31 O         141.5794  139.7425  153.8093 O.2     1  UNL1       -0.2734
     32 H         139.5926  142.8798  153.3894 H       1  UNL1        0.1240
     33 N         141.8306  142.6052  165.2778 N.1     1  UNL1       -0.1907
     34 C         141.4799  143.2300  163.9601 C.1     1  UNL1        0.1035
@<TRIPOS>BOND
     1    33    34    3
     2    34     1    1
     3     1     2   ar
     4     2     3   ar
     5     3     4   ar
     6     4     5   ar
     7     5     6   ar
     8     6     7    1
     9     7     8    1
    10     8     9   ar
    11     9    10   ar
    12    10    11   ar
    13    11    12   ar
    14    12    13   ar
    15    12    14    1
    16    14    15    1
    17    15    16    1
    18    16    17    1
    19    14    18    1
    20    18    19    1
    21    19    20    1
    22    21    20    1
    23    21    22    1
    24    22    23    1
    25    23    24    1
    26    24    25   ar
    27    25    26   ar
    28    26    27   ar
    29    27    28   ar
    30    28    29    1
    31    21    30    1
    32    30    31    2
    33     6     1   ar
    34    13     8   ar
    35    30    18   am
    36    29     4    1
    37    17    11    1
    38    28    24   ar
    39    22    32    1
@<TRIPOS>MOLECULE
*****
 34 39 0 0 0
SMALL
GASTEIGER

@<TRIPOS>ATOM
      1 C         143.1852  139.9034  162.1865 C.ar    1  UNL1        0.1028
      2 C         143.6345  138.4724  162.2030 C.ar    1  UNL1        0.0131
      3 C         143.5080  137.6322  160.9668 C.ar    1  UNL1       -0.0015
      4 C         142.9750  137.9222  159.5525 C.ar    1  UNL1        0.0035
      5 C         142.9045  139.0930  160.4875 C.ar    1  UNL1        0.0358
      6 C         142.6093  140.4943  160.9339 C.ar    1  UNL1        0.1545
      7 O         142.1345  141.9128  160.8234 O.3     1  UNL1       -0.4528
      8 C         141.5521  143.1327  160.1731 C.ar    1  UNL1        0.1453
      9 C         141.1728  144.7677  160.5822 C.ar    1  UNL1        0.0406
     10 C         140.5738  145.8769  159.7693 C.ar    1  UNL1        0.0398
     11 C         140.1989  145.6388  158.3366 C.ar    1  UNL1        0.1363
     12 C         140.4225  144.2918  157.7158 C.ar    1  UNL1        0.0329
     13 C         140.9510  143.9680  159.0818 C.ar    1  UNL1        0.0378
     14 C         140.0473  144.0546  156.2830 C.3     1  UNL1        0.1046
     15 C         139.4484  145.1645  155.4709 C.3     1  UNL1        0.0718
     16 C         139.2247  146.5115  156.0917 C.3     1  UNL1        0.2075
     17 O         139.6000  146.7487  157.5246 O.3     1  UNL1       -0.4757
     18 N         139.8823  143.2926  155.0015 N.am    1  UNL1       -0.2761
     19 C         139.3923  143.4494  153.5925 C.3     1  UNL1        0.0956
     20 C         139.5787  142.1382  152.8883 C.3     1  UNL1        0.0466
     21 C         140.2479  140.7205  153.6202 C.3     1  UNL1        0.1337
     22 N         140.7229  139.3019  153.7306 N.3     1  UNL1       -0.2863
     23 C         141.3052  138.0821  154.3810 C.3     1  UNL1        0.1151
     24 C         141.9064  137.2468  155.4722 C.ar    1  UNL1        0.0739
     25 C         142.0238  136.0141  154.6256 C.ar    1  UNL1        0.1147
     26 N         142.6247  134.9285  155.4685 N.ar    1  UNL1       -0.2226
     27 C         142.8788  135.4903  156.8359 C.ar    1  UNL1        0.1786
     28 N         142.4348  136.9231  156.8382 N.ar    1  UNL1       -0.3070
     29 C         142.8100  137.1602  158.2711 C.3     1  UNL1        0.1341
     30 C         139.9528  142.1218  154.0664 C.2     1  UNL1        0.2401
     31 O         139.6319  142.5951  153.5110 O.2     1  UNL1       -0.2734
     32 H         141.3768  139.3385  152.9487 H       1  UNL1        0.1240
     33 N         143.4382  141.5838  164.6588 N.1     1  UNL1       -0.1907
     34 C         143.3117  140.7435  163.4227 C.1     1  UNL1        0.1035
@<TRIPOS>BOND
     1    33    34    3
     2    34     1    1
     3     1     2   ar
     4     2     3   ar
     5     3     4   ar
     6     4     5   ar
     7     5     6   ar
     8     6     7    1
     9     7     8    1
    10     8     9   ar
    11     9    10   ar
    12    10    11   ar
    13    11    12   ar
    14    12    13   ar
    15    12    14    1
    16    14    15    1
    17    15    16    1
    18    16    17    1
    19    14    18    1
    20    18    19    1
    21    19    20    1
    22    21    20    1
    23    21    22    1
    24    22    23    1
    25    23    24    1
    26    24    25   ar
    27    25    26   ar
    28    26    27   ar
    29    27    28   ar
    30    28    29    1
    31    21    30    1
    32    30    31    2
    33     6     1   ar
    34    13     8   ar
    35    30    18   am
    36    29     4    1
    37    17    11    1
    38    28    24   ar
    39    22    32    1
@<TRIPOS>MOLECULE
*****
 34 39 0 0 0
SMALL
GASTEIGER

@<TRIPOS>ATOM
      1 C         137.5435  141.5679  156.1900 C.ar    1  UNL1        0.1028
      2 C         137.5354  142.4401  157.4103 C.ar    1  UNL1        0.0131
      3 C         138.3944  142.0892  158.5888 C.ar    1  UNL1       -0.0015
      4 C         139.3743  140.9351  158.8648 C.ar    1  UNL1        0.0035
      5 C         138.7234  140.8785  157.5147 C.ar    1  UNL1        0.0358
      6 C         138.4107  140.3447  156.1481 C.ar    1  UNL1        0.1545
      7 O         138.4840  139.4149  154.9734 O.3     1  UNL1       -0.4528
      8 C         138.9321  138.2306  154.1692 C.ar    1  UNL1        0.1453
      9 C         138.6447  137.5305  152.6163 C.ar    1  UNL1        0.0406
     10 C         139.2057  136.3002  151.9671 C.ar    1  UNL1        0.0398
     11 C         140.1997  135.4510  152.7025 C.ar    1  UNL1        0.1363
     12 C         140.6332  135.8312  154.0872 C.ar    1  UNL1        0.0329
     13 C         139.6868  136.9723  153.8581 C.ar    1  UNL1        0.0378
     14 C         141.6272  134.9814  154.8219 C.3     1  UNL1        0.1046
     15 C         142.1877  133.7512  154.1719 C.3     1  UNL1        0.0718
     16 C         141.7541  133.3709  152.7872 C.3     1  UNL1        0.2075
     17 O         140.7601  134.2208  152.0525 O.3     1  UNL1       -0.4757
     18 N         142.5174  134.5520  155.9502 N.am    1  UNL1       -0.2761
     19 C         143.4940  133.4817  156.3385 C.3     1  UNL1        0.0956
     20 C         143.9853  133.7827  157.7234 C.3     1  UNL1        0.0466
     21 C         143.4811  135.1424  158.6669 C.3     1  UNL1        0.1337
     22 N         143.4078  136.0722  159.8417 N.3     1  UNL1       -0.2863
     23 C         142.9597  137.2565  160.6459 C.3     1  UNL1        0.1151
     24 C         142.2050  138.5149  160.9571 C.ar    1  UNL1        0.0739
     25 C         142.7948  138.6700  162.3275 C.ar    1  UNL1        0.1147
     26 N         142.2129  139.9069  162.9452 N.ar    1  UNL1       -0.2226
     27 C         141.2635  140.5162  161.9566 C.ar    1  UNL1        0.1786
     28 N         141.2586  139.6559  160.7278 N.ar    1  UNL1       -0.3070
     29 C         140.2646  140.5058  159.9931 C.3     1  UNL1        0.1341
     30 C         143.1685  134.6086  157.3004 C.2     1  UNL1        0.2401
     31 O         143.5525  133.9391  157.1008 O.2     1  UNL1       -0.2734
     32 H         144.4073  136.2684  159.8955 H       1  UNL1        0.1240
     33 N         135.8254  142.2697  153.8330 N.1     1  UNL1       -0.1907
     34 C         136.6845  141.9189  155.0115 C.1     1  UNL1        0.1035
@<TRIPOS>BOND
     1    33    34    3
     2    34     1    1
     3     1     2   ar
     4     2     3   ar
     5     3     4   ar
     6     4     5   ar
     7     5     6   ar
     8     6     7    1
     9     7     8    1
    10     8     9   ar
    11     9    10   ar
    12    10    11   ar
    13    11    12   ar
    14    12    13   ar
    15    12    14    1
    16    14    15    1
    17    15    16    1
    18    16    17    1
    19    14    18    1
    20    18    19    1
    21    19    20    1
    22    21    20    1
    23    21    22    1
    24    22    23    1
    25    23    24    1
    26    24    25   ar
    27    25    26   ar
    28    26    27   ar
    29    27    28   ar
    30    28    29    1
    31    21    30    1
    32    30    31    2
    33     6     1   ar
    34    13     8   ar
    35    30    18   am
    36    29     4    1
    37    17    11    1
    38    28    24   ar
    39    22    32    1
