@<TRIPOS>MOLECULE
*****
 40 43 0 0 0
SMALL
GASTEIGER

@<TRIPOS>ATOM
      1 N         138.5898  140.0967  163.9845 N.am    1  UNL1       -0.2770
      2 C         137.9379  141.1949  163.1976 C.2     1  UNL1        0.2294
      3 O         137.6060  141.6824  163.7339 O.2     1  UNL1       -0.2747
      4 C         138.0127  141.1901  161.6994 C.3     1  UNL1        0.1208
      5 C         137.4446  140.0388  160.9238 C.3     1  UNL1        0.0804
      6 N         137.5194  140.0340  159.4256 N.3     1  UNL1       -0.2969
      7 C         138.1623  141.1807  158.7032 C.3     1  UNL1        0.0714
      8 C         138.7305  142.3320  159.4789 C.3     1  UNL1        0.0487
      9 C         138.6556  142.3367  160.9770 C.3     1  UNL1        0.1177
     10 O         139.3572  143.6424  160.7471 O.3     1  UNL1       -0.3821
     11 H         136.5607  139.9706  159.0831 H       1  UNL1        0.1233
     12 H         139.4793  143.7806  159.7948 H       1  UNL1        0.2107
     13 C         138.8245  142.7949  162.3952 C.ar    1  UNL1        0.0046
     14 C         137.7162  143.5383  163.0802 C.ar    1  UNL1        0.0004
     15 C         137.8851  143.9965  164.4985 C.ar    1  UNL1        0.0317
     16 C         139.1622  143.7113  165.2319 C.ar    1  UNL1        0.1674
     17 F         139.3310  144.1695  166.6502 F       1  UNL1       -0.2018
     18 C         140.2704  142.9679  164.5469 C.ar    1  UNL1        0.1671
     19 F         141.5475  142.6826  165.2802 F       1  UNL1       -0.2018
     20 C         140.1015  142.5097  163.1286 C.ar    1  UNL1        0.0299
     21 C         139.3164  138.9939  163.2733 C.3     1  UNL1        0.0758
     22 C         140.4426  138.5356  162.3950 C.3     1  UNL1        0.0215
     23 C         139.4488  137.5422  162.9199 C.3     1  UNL1        0.0215
     24 C         138.5149  140.1015  165.4826 C.3     1  UNL1        0.1201
     25 C         142.2734  139.2999  166.4735 C.ar    1  UNL1       -0.0194
     26 C         141.0212  139.4400  165.6597 C.ar    1  UNL1       -0.0067
     27 C         139.7672  139.9614  166.2966 C.ar    1  UNL1        0.0004
     28 C         139.7653  140.3427  167.7473 C.ar    1  UNL1        0.0343
     29 C         141.0175  140.2026  168.5611 C.ar    1  UNL1        0.1381
     30 C         142.2715  139.6812  167.9242 C.ar    1  UNL1        0.0326
     31 C         143.5274  138.7785  165.8367 C.3     1  UNL1        0.0290
     32 C         143.8355  139.1089  164.4063 C.3     1  UNL1        0.0367
     33 C         144.4348  140.4386  164.0561 C.3     1  UNL1        0.1426
     34 C         145.1261  142.0733  162.1587 C.3     1  UNL1        0.1741
     35 O         144.9855  140.6742  162.6808 O.3     1  UNL1       -0.3511
     36 O         141.0157  140.5839  170.0119 O.3     1  UNL1       -0.4728
     37 C         142.2260  141.2292  170.6192 C.3     1  UNL1        0.2373
     38 C         142.6457  142.6002  170.1785 C.3     1  UNL1        0.1894
     39 O         141.7821  143.7859  170.4918 O.3     1  UNL1       -0.3471
     40 C         140.4395  143.9293  169.8385 C.3     1  UNL1        0.1743
@<TRIPOS>BOND
     1    34    35    1
     2    35    33    1
     3    33    32    1
     4    32    31    1
     5    31    25    1
     6    25    26   ar
     7    26    27   ar
     8    27    24    1
     9    24     1    1
    10     1     2   am
    11     2     3    2
    12     4     2    1
    13     4     5    1
    14     5     6    1
    15     6     7    1
    16     7     8    1
    17     8     9    1
    18     9    10    1
    19     9    13    1
    20    13    14   ar
    21    14    15   ar
    22    15    16   ar
    23    16    17    1
    24    16    18   ar
    25    18    19    1
    26    18    20   ar
    27     1    21    1
    28    21    22    1
    29    22    23    1
    30    27    28   ar
    31    28    29   ar
    32    29    36    1
    33    36    37    1
    34    37    38    1
    35    38    39    1
    36    39    40    1
    37    29    30   ar
    38    30    25   ar
    39     9     4    1
    40    20    13   ar
    41    23    21    1
    42     6    11    1
    43    10    12    1
@<TRIPOS>MOLECULE
*****
 40 43 0 0 0
SMALL
GASTEIGER

@<TRIPOS>ATOM
      1 N         140.5122  143.1364  163.9645 N.am    1  UNL1       -0.2770
      2 C         141.4391  142.4141  163.0321 C.2     1  UNL1        0.2294
      3 O         142.0226  142.1184  163.4877 O.2     1  UNL1       -0.2747
      4 C         141.1435  142.3750  161.5620 C.3     1  UNL1        0.1208
      5 C         139.9161  141.6722  161.0622 C.3     1  UNL1        0.0804
      6 N         139.6205  141.6331  159.5921 N.3     1  UNL1       -0.2969
      7 C         140.5523  142.2968  158.6219 C.3     1  UNL1        0.0714
      8 C         141.7796  142.9996  159.1217 C.3     1  UNL1        0.0487
      9 C         142.0752  143.0387  160.5917 C.3     1  UNL1        0.1177
     10 O         143.2514  143.8088  160.0689 O.3     1  UNL1       -0.3821
     11 H         138.7055  142.0651  159.4642 H       1  UNL1        0.1233
     12 H         143.1955  143.8679  159.1024 H       1  UNL1        0.2107
     13 C         142.7792  143.3452  161.8802 C.ar    1  UNL1        0.0046
     14 C         142.5496  144.6593  162.5662 C.ar    1  UNL1        0.0004
     15 C         143.2537  144.9658  163.8547 C.ar    1  UNL1        0.0317
     16 C         144.1875  143.9583  164.4573 C.ar    1  UNL1        0.1674
     17 F         144.8915  144.2649  165.7458 F       1  UNL1       -0.2018
     18 C         144.4171  142.6443  163.7714 C.ar    1  UNL1        0.1671
     19 F         145.3508  141.6368  164.3739 F       1  UNL1       -0.2018
     20 C         143.7130  142.3378  162.4828 C.ar    1  UNL1        0.0299
     21 C         139.2899  143.8195  163.4268 C.3     1  UNL1        0.0758
     22 C         138.6610  144.9559  162.6764 C.3     1  UNL1        0.0215
     23 C         137.8016  143.8664  163.2460 C.3     1  UNL1        0.0215
     24 C         140.8078  143.1755  165.4346 C.3     1  UNL1        0.1201
     25 C         139.0201  139.8471  166.6496 C.ar    1  UNL1       -0.0194
     26 C         139.5387  140.9307  165.7513 C.ar    1  UNL1       -0.0067
     27 C         140.2892  142.0919  166.3329 C.ar    1  UNL1        0.0004
     28 C         140.5213  142.1695  167.8128 C.ar    1  UNL1        0.0343
     29 C         140.0027  141.0860  168.7111 C.ar    1  UNL1        0.1381
     30 C         139.2521  139.9248  168.1295 C.ar    1  UNL1        0.0326
     31 C         138.2695  138.6859  166.0680 C.3     1  UNL1        0.0290
     32 C         138.9920  137.6647  165.2403 C.3     1  UNL1        0.0367
     33 C         138.8916  137.7046  163.7442 C.3     1  UNL1        0.1426
     34 C         137.7191  138.7539  161.6767 C.3     1  UNL1        0.1741
     35 O         138.2692  138.8889  163.0656 O.3     1  UNL1       -0.3511
     36 O         140.2347  141.1636  170.1911 O.3     1  UNL1       -0.4728
     37 C         141.2475  140.2671  170.8395 C.3     1  UNL1        0.2373
     38 C         142.6242  140.1456  170.2562 C.3     1  UNL1        0.1894
     39 O         142.9438  139.0215  169.3159 O.3     1  UNL1       -0.3471
     40 C         142.8349  139.2291  167.8344 C.3     1  UNL1        0.1743
@<TRIPOS>BOND
     1    34    35    1
     2    35    33    1
     3    33    32    1
     4    32    31    1
     5    31    25    1
     6    25    26   ar
     7    26    27   ar
     8    27    24    1
     9    24     1    1
    10     1     2   am
    11     2     3    2
    12     4     2    1
    13     4     5    1
    14     5     6    1
    15     6     7    1
    16     7     8    1
    17     8     9    1
    18     9    10    1
    19     9    13    1
    20    13    14   ar
    21    14    15   ar
    22    15    16   ar
    23    16    17    1
    24    16    18   ar
    25    18    19    1
    26    18    20   ar
    27     1    21    1
    28    21    22    1
    29    22    23    1
    30    27    28   ar
    31    28    29   ar
    32    29    36    1
    33    36    37    1
    34    37    38    1
    35    38    39    1
    36    39    40    1
    37    29    30   ar
    38    30    25   ar
    39     9     4    1
    40    20    13   ar
    41    23    21    1
    42     6    11    1
    43    10    12    1
@<TRIPOS>MOLECULE
*****
 40 43 0 0 0
SMALL
GASTEIGER

@<TRIPOS>ATOM
      1 N         140.0591  144.0274  164.1836 N.am    1  UNL1       -0.2770
      2 C         141.0940  144.8090  163.4298 C.2     1  UNL1        0.2294
      3 O         141.6375  145.0311  163.9690 O.2     1  UNL1       -0.2747
      4 C         140.9470  145.0172  161.9516 C.3     1  UNL1        0.1208
      5 C         139.7809  145.7940  161.4159 C.3     1  UNL1        0.0804
      6 N         139.6339  146.0023  159.9377 N.3     1  UNL1       -0.2969
      7 C         140.6530  145.4338  158.9952 C.3     1  UNL1        0.0714
      8 C         141.8190  144.6570  159.5309 C.3     1  UNL1        0.0487
      9 C         141.9660  144.4488  161.0091 C.3     1  UNL1        0.1177
     10 O         143.1829  143.7201  160.5210 O.3     1  UNL1       -0.3821
     11 H         139.6192  147.0103  159.7824 H       1  UNL1        0.1233
     12 H         143.2233  143.7703  159.5532 H       1  UNL1        0.2107
     13 C         142.5356  143.9874  162.3177 C.ar    1  UNL1        0.0046
     14 C         143.3824  144.9164  163.1363 C.ar    1  UNL1        0.0004
     15 C         143.9519  144.4550  164.4450 C.ar    1  UNL1        0.0317
     16 C         143.6748  143.0647  164.9352 C.ar    1  UNL1        0.1674
     17 F         144.2444  142.6033  166.2439 F       1  UNL1       -0.2018
     18 C         142.8281  142.1357  164.1166 C.ar    1  UNL1        0.1671
     19 F         142.5509  140.7454  164.6067 F       1  UNL1       -0.2018
     20 C         142.2585  142.5971  162.8079 C.ar    1  UNL1        0.0299
     21 C         138.8773  143.4541  163.4593 C.3     1  UNL1        0.0758
     22 C         138.3124  142.5228  162.4280 C.3     1  UNL1        0.0215
     23 C         137.3953  143.3924  163.2359 C.3     1  UNL1        0.0215
     24 C         140.2061  143.8191  165.6618 C.3     1  UNL1        0.1201
     25 C         139.3117  140.0015  166.2749 C.ar    1  UNL1       -0.0194
     26 C         139.2810  141.3918  165.7128 C.ar    1  UNL1       -0.0067
     27 C         140.2369  142.4287  166.2239 C.ar    1  UNL1        0.0004
     28 C         141.2235  142.0752  167.2970 C.ar    1  UNL1        0.0343
     29 C         141.2542  140.6848  167.8590 C.ar    1  UNL1        0.1381
     30 C         140.2983  139.6480  167.3480 C.ar    1  UNL1        0.0326
     31 C         138.3558  138.9646  165.7638 C.3     1  UNL1        0.0290
     32 C         138.8788  137.6943  165.1615 C.3     1  UNL1        0.0367
     33 C         139.4074  137.6919  163.7577 C.3     1  UNL1        0.1426
     34 C         137.8999  138.7885  161.9481 C.3     1  UNL1        0.1741
     35 O         138.4619  137.5604  162.6006 O.3     1  UNL1       -0.3511
     36 O         142.2409  140.3313  168.9322 O.3     1  UNL1       -0.4728
     37 C         141.7570  139.9490  170.2995 C.3     1  UNL1        0.2373
     38 C         141.2752  141.0069  171.2476 C.3     1  UNL1        0.1894
     39 O         139.9204  141.6224  171.0590 O.3     1  UNL1       -0.3471
     40 C         139.8004  143.0460  170.6020 C.3     1  UNL1        0.1743
@<TRIPOS>BOND
     1    34    35    1
     2    35    33    1
     3    33    32    1
     4    32    31    1
     5    31    25    1
     6    25    26   ar
     7    26    27   ar
     8    27    24    1
     9    24     1    1
    10     1     2   am
    11     2     3    2
    12     4     2    1
    13     4     5    1
    14     5     6    1
    15     6     7    1
    16     7     8    1
    17     8     9    1
    18     9    10    1
    19     9    13    1
    20    13    14   ar
    21    14    15   ar
    22    15    16   ar
    23    16    17    1
    24    16    18   ar
    25    18    19    1
    26    18    20   ar
    27     1    21    1
    28    21    22    1
    29    22    23    1
    30    27    28   ar
    31    28    29   ar
    32    29    36    1
    33    36    37    1
    34    37    38    1
    35    38    39    1
    36    39    40    1
    37    29    30   ar
    38    30    25   ar
    39     9     4    1
    40    20    13   ar
    41    23    21    1
    42     6    11    1
    43    10    12    1
@<TRIPOS>MOLECULE
*****
 40 43 0 0 0
SMALL
GASTEIGER

@<TRIPOS>ATOM
      1 N         138.5545  140.0729  163.9576 N.am    1  UNL1       -0.2770
      2 C         137.9067  141.1720  163.1687 C.2     1  UNL1        0.2294
      3 O         137.5844  141.6664  163.7045 O.2     1  UNL1       -0.2747
      4 C         137.9685  141.1563  161.6700 C.3     1  UNL1        0.1208
      5 C         137.4152  139.9880  160.9089 C.3     1  UNL1        0.0804
      6 N         137.4770  139.9723  159.4102 N.3     1  UNL1       -0.2969
      7 C         138.0919  141.1247  158.6727 C.3     1  UNL1        0.0714
      8 C         138.6451  142.2929  159.4339 C.3     1  UNL1        0.0487
      9 C         138.5834  142.3086  160.9326 C.3     1  UNL1        0.1177
     10 O         139.2582  143.6253  160.6858 O.3     1  UNL1       -0.3821
     11 H         136.5167  139.8881  159.0768 H       1  UNL1        0.1233
     12 H         139.3694  143.7578  159.7313 H       1  UNL1        0.2107
     13 C         138.7560  142.7816  162.3455 C.ar    1  UNL1        0.0046
     14 C         137.6367  143.5018  163.0374 C.ar    1  UNL1        0.0004
     15 C         137.8095  143.9748  164.4503 C.ar    1  UNL1        0.0317
     16 C         139.1013  143.7277  165.1714 C.ar    1  UNL1        0.1674
     17 F         139.2739  144.2007  166.5844 F       1  UNL1       -0.2018
     18 C         140.2206  143.0075  164.4796 C.ar    1  UNL1        0.1671
     19 F         141.5124  142.7603  165.2007 F       1  UNL1       -0.2018
     20 C         140.0479  142.5345  163.0666 C.ar    1  UNL1        0.0299
     21 C         139.2640  138.9581  163.2479 C.3     1  UNL1        0.0758
     22 C         140.3600  138.4865  162.3388 C.3     1  UNL1        0.0215
     23 C         139.3970  137.4987  162.9276 C.3     1  UNL1        0.0215
     24 C         138.4928  140.0886  165.4563 C.3     1  UNL1        0.1201
     25 C         140.9600  139.8861  168.5582 C.ar    1  UNL1       -0.0194
     26 C         139.7049  140.0529  167.7540 C.ar    1  UNL1       -0.0067
     27 C         139.7481  139.9218  166.2604 C.ar    1  UNL1        0.0004
     28 C         141.0464  139.6240  165.5709 C.ar    1  UNL1        0.0343
     29 C         142.3016  139.4572  166.3750 C.ar    1  UNL1        0.1381
     30 C         142.2584  139.5883  167.8687 C.ar    1  UNL1        0.0326
     31 C         140.9168  140.0171  170.0518 C.3     1  UNL1        0.0290
     32 C         142.0567  140.6641  170.7812 C.3     1  UNL1        0.0367
     33 C         142.0752  142.1514  170.9755 C.3     1  UNL1        0.1426
     34 C         140.4624  143.7886  169.7637 C.3     1  UNL1        0.1741
     35 O         140.7919  142.9275  170.9469 O.3     1  UNL1       -0.3511
     36 O         143.6001  139.1594  165.6855 O.3     1  UNL1       -0.4728
     37 C         143.6483  139.0542  164.1900 C.3     1  UNL1        0.2373
     38 C         144.6255  139.8837  163.4109 C.3     1  UNL1        0.1894
     39 O         145.5226  140.8520  164.1231 O.3     1  UNL1       -0.3471
     40 C         145.1357  142.2977  164.2244 C.3     1  UNL1        0.1743
@<TRIPOS>BOND
     1    34    35    1
     2    35    33    1
     3    33    32    1
     4    32    31    1
     5    31    25    1
     6    25    26   ar
     7    26    27   ar
     8    27    24    1
     9    24     1    1
    10     1     2   am
    11     2     3    2
    12     4     2    1
    13     4     5    1
    14     5     6    1
    15     6     7    1
    16     7     8    1
    17     8     9    1
    18     9    10    1
    19     9    13    1
    20    13    14   ar
    21    14    15   ar
    22    15    16   ar
    23    16    17    1
    24    16    18   ar
    25    18    19    1
    26    18    20   ar
    27     1    21    1
    28    21    22    1
    29    22    23    1
    30    27    28   ar
    31    28    29   ar
    32    29    36    1
    33    36    37    1
    34    37    38    1
    35    38    39    1
    36    39    40    1
    37    29    30   ar
    38    30    25   ar
    39     9     4    1
    40    20    13   ar
    41    23    21    1
    42     6    11    1
    43    10    12    1
@<TRIPOS>MOLECULE
*****
 40 43 0 0 0
SMALL
GASTEIGER

@<TRIPOS>ATOM
      1 N         143.1847  139.2419  163.8159 N.am    1  UNL1       -0.2770
      2 C         144.1712  140.0647  163.0413 C.2     1  UNL1        0.2294
      3 O         144.6930  140.3429  163.5759 O.2     1  UNL1       -0.2747
      4 C         144.0247  140.2087  161.5554 C.3     1  UNL1        0.1208
      5 C         144.1279  139.0014  160.6711 C.3     1  UNL1        0.0804
      6 N         143.9815  139.1453  159.1853 N.3     1  UNL1       -0.2969
      7 C         143.7318  140.4966  158.5837 C.3     1  UNL1        0.0714
      8 C         143.6286  141.7038  159.4679 C.3     1  UNL1        0.0487
      9 C         143.7751  141.5598  160.9538 C.3     1  UNL1        0.1177
     10 O         143.5490  143.0395  160.8565 O.3     1  UNL1       -0.3821
     11 H         143.2009  138.5505  158.9073 H       1  UNL1        0.1233
     12 H         143.4339  143.2885  159.9261 H       1  UNL1        0.2107
     13 C         143.8430  141.9297  162.4059 C.ar    1  UNL1        0.0046
     14 C         145.1743  142.1313  163.0670 C.ar    1  UNL1        0.0004
     15 C         145.2422  142.5012  164.5191 C.ar    1  UNL1        0.0317
     16 C         143.9789  142.6695  165.3101 C.ar    1  UNL1        0.1674
     17 F         144.0469  143.0394  166.7622 F       1  UNL1       -0.2018
     18 C         142.6476  142.4680  164.6490 C.ar    1  UNL1        0.1671
     19 F         141.3842  142.6363  165.4399 F       1  UNL1       -0.2018
     20 C         142.5797  142.0980  163.1969 C.ar    1  UNL1        0.0299
     21 C         142.0519  138.5632  163.1047 C.3     1  UNL1        0.0758
     22 C         141.2798  137.3180  162.7832 C.3     1  UNL1        0.0215
     23 C         140.8618  138.6327  162.1944 C.3     1  UNL1        0.0215
     24 C         143.3312  139.0979  165.3018 C.3     1  UNL1        0.1201
     25 C         139.6229  139.8041  166.5267 C.ar    1  UNL1       -0.0194
     26 C         140.7872  139.5134  165.6268 C.ar    1  UNL1       -0.0067
     27 C         142.1669  139.3887  166.2019 C.ar    1  UNL1        0.0004
     28 C         142.3824  139.5547  167.6770 C.ar    1  UNL1        0.0343
     29 C         141.2182  139.8455  168.5769 C.ar    1  UNL1        0.1381
     30 C         139.8385  139.9702  168.0018 C.ar    1  UNL1        0.0326
     31 C         138.2432  139.9289  165.9516 C.3     1  UNL1        0.0290
     32 C         138.0617  140.3340  164.5188 C.3     1  UNL1        0.0367
     33 C         137.8667  141.7790  164.1670 C.3     1  UNL1        0.1426
     34 C         137.9863  142.6891  161.7364 C.3     1  UNL1        0.1741
     35 O         137.1838  142.1532  162.8848 O.3     1  UNL1       -0.3511
     36 O         141.4337  140.0115  170.0521 O.3     1  UNL1       -0.4728
     37 C         142.5621  140.8626  170.5541 C.3     1  UNL1        0.2373
     38 C         142.3368  142.3194  170.8318 C.3     1  UNL1        0.1894
     39 O         140.9421  142.8707  170.8592 O.3     1  UNL1       -0.3471
     40 C         140.4529  143.7298  169.7311 C.3     1  UNL1        0.1743
@<TRIPOS>BOND
     1    34    35    1
     2    35    33    1
     3    33    32    1
     4    32    31    1
     5    31    25    1
     6    25    26   ar
     7    26    27   ar
     8    27    24    1
     9    24     1    1
    10     1     2   am
    11     2     3    2
    12     4     2    1
    13     4     5    1
    14     5     6    1
    15     6     7    1
    16     7     8    1
    17     8     9    1
    18     9    10    1
    19     9    13    1
    20    13    14   ar
    21    14    15   ar
    22    15    16   ar
    23    16    17    1
    24    16    18   ar
    25    18    19    1
    26    18    20   ar
    27     1    21    1
    28    21    22    1
    29    22    23    1
    30    27    28   ar
    31    28    29   ar
    32    29    36    1
    33    36    37    1
    34    37    38    1
    35    38    39    1
    36    39    40    1
    37    29    30   ar
    38    30    25   ar
    39     9     4    1
    40    20    13   ar
    41    23    21    1
    42     6    11    1
    43    10    12    1
@<TRIPOS>MOLECULE
*****
 40 43 0 0 0
SMALL
GASTEIGER

@<TRIPOS>ATOM
      1 N         141.8615  142.7129  164.4752 N.am    1  UNL1       -0.2770
      2 C         142.0433  143.6873  163.3492 C.2     1  UNL1        0.2294
      3 O         141.6030  144.3248  163.5371 O.2     1  UNL1       -0.2747
      4 C         142.9255  143.3357  162.1882 C.3     1  UNL1        0.1208
      5 C         144.3927  143.1089  162.4029 C.3     1  UNL1        0.0804
      6 N         145.2750  142.7573  161.2419 N.3     1  UNL1       -0.2969
      7 C         144.6901  142.6325  159.8662 C.3     1  UNL1        0.0714
      8 C         143.2230  142.8593  159.6516 C.3     1  UNL1        0.0487
      9 C         142.3407  143.2109  160.8126 C.3     1  UNL1        0.1177
     10 O         141.3272  143.2078  159.7068 O.3     1  UNL1       -0.3821
     11 H         145.7062  141.8593  161.4611 H       1  UNL1        0.1233
     12 H         141.7640  142.9898  158.8685 H       1  UNL1        0.2107
     13 C         141.1065  143.5614  161.5895 C.ar    1  UNL1        0.0046
     14 C         140.7985  144.9961  161.9010 C.ar    1  UNL1        0.0004
     15 C         139.5642  145.3465  162.6780 C.ar    1  UNL1        0.0317
     16 C         138.6379  144.2624  163.1435 C.ar    1  UNL1        0.1674
     17 F         137.4036  144.6130  163.9205 F       1  UNL1       -0.2018
     18 C         138.9459  142.8278  162.8322 C.ar    1  UNL1        0.1671
     19 F         138.0196  141.7437  163.2977 F       1  UNL1       -0.2018
     20 C         140.1802  142.4773  162.0551 C.ar    1  UNL1        0.0299
     21 C         142.5621  141.3871  164.4401 C.3     1  UNL1        0.0758
     22 C         143.6129  140.4586  164.9727 C.3     1  UNL1        0.0215
     23 C         142.7246  140.0191  163.8467 C.3     1  UNL1        0.0215
     24 C         140.9792  143.0646  165.6362 C.3     1  UNL1        0.1201
     25 C         139.0825  139.7255  166.6377 C.ar    1  UNL1       -0.0194
     26 C         139.6948  140.8124  165.8050 C.ar    1  UNL1       -0.0067
     27 C         140.3669  141.9776  166.4690 C.ar    1  UNL1        0.0004
     28 C         140.4265  142.0557  167.9657 C.ar    1  UNL1        0.0343
     29 C         139.8142  140.9687  168.7985 C.ar    1  UNL1        0.1381
     30 C         139.1421  139.8036  168.1344 C.ar    1  UNL1        0.0326
     31 C         138.4104  138.5604  165.9737 C.3     1  UNL1        0.0290
     32 C         139.1989  137.6491  165.0804 C.3     1  UNL1        0.0367
     33 C         138.9279  137.6261  163.6053 C.3     1  UNL1        0.1426
     34 C         138.2238  138.9487  161.4828 C.3     1  UNL1        0.1741
     35 O         138.1560  138.7428  162.9670 O.3     1  UNL1       -0.3511
     36 O         139.8738  141.0468  170.2953 O.3     1  UNL1       -0.4728
     37 C         141.1945  140.9471  170.9995 C.3     1  UNL1        0.2373
     38 C         142.2866  140.0922  170.4279 C.3     1  UNL1        0.1894
     39 O         143.4180  140.7257  169.6739 O.3     1  UNL1       -0.3471
     40 C         143.6565  142.2027  169.7809 C.3     1  UNL1        0.1743
@<TRIPOS>BOND
     1    34    35    1
     2    35    33    1
     3    33    32    1
     4    32    31    1
     5    31    25    1
     6    25    26   ar
     7    26    27   ar
     8    27    24    1
     9    24     1    1
    10     1     2   am
    11     2     3    2
    12     4     2    1
    13     4     5    1
    14     5     6    1
    15     6     7    1
    16     7     8    1
    17     8     9    1
    18     9    10    1
    19     9    13    1
    20    13    14   ar
    21    14    15   ar
    22    15    16   ar
    23    16    17    1
    24    16    18   ar
    25    18    19    1
    26    18    20   ar
    27     1    21    1
    28    21    22    1
    29    22    23    1
    30    27    28   ar
    31    28    29   ar
    32    29    36    1
    33    36    37    1
    34    37    38    1
    35    38    39    1
    36    39    40    1
    37    29    30   ar
    38    30    25   ar
    39     9     4    1
    40    20    13   ar
    41    23    21    1
    42     6    11    1
    43    10    12    1
@<TRIPOS>MOLECULE
*****
 40 43 0 0 0
SMALL
GASTEIGER

@<TRIPOS>ATOM
      1 N         140.3887  142.9749  163.8130 N.am    1  UNL1       -0.2770
      2 C         141.2232  142.7550  162.5860 C.2     1  UNL1        0.2294
      3 O         141.9305  142.4941  162.8452 O.2     1  UNL1       -0.2747
      4 C         140.6485  143.0326  161.2286 C.3     1  UNL1        0.1208
      5 C         139.5416  142.1738  160.6927 C.3     1  UNL1        0.0804
      6 N         138.9669  142.4514  159.3353 N.3     1  UNL1       -0.2969
      7 C         139.4992  143.5880  158.5137 C.3     1  UNL1        0.0714
      8 C         140.6061  144.4468  159.0495 C.3     1  UNL1        0.0487
      9 C         141.1808  144.1691  160.4070 C.3     1  UNL1        0.1177
     10 O         142.0130  145.3519  160.0088 O.3     1  UNL1       -0.3821
     11 H         137.9705  142.6249  159.4672 H       1  UNL1        0.1233
     12 H         141.7471  145.6515  159.1253 H       1  UNL1        0.2107
     13 C         142.0444  144.3022  161.6261 C.ar    1  UNL1        0.0046
     14 C         141.6696  145.2705  162.7087 C.ar    1  UNL1        0.0004
     15 C         142.5333  145.4035  163.9279 C.ar    1  UNL1        0.0317
     16 C         143.7718  144.5683  164.0644 C.ar    1  UNL1        0.1674
     17 F         144.6355  144.7014  165.2837 F       1  UNL1       -0.2018
     18 C         144.1466  143.6001  162.9819 C.ar    1  UNL1        0.1671
     19 F         145.3851  142.7649  163.1184 F       1  UNL1       -0.2018
     20 C         143.2829  143.4670  161.7627 C.ar    1  UNL1        0.0299
     21 C         138.9797  143.4725  163.6825 C.3     1  UNL1        0.0758
     22 C         138.0067  144.5056  163.1969 C.3     1  UNL1        0.0215
     23 C         137.5124  143.3013  163.9421 C.3     1  UNL1        0.0215
     24 C         140.9634  142.6972  165.1705 C.3     1  UNL1        0.1201
     25 C         139.6781  140.7929  168.4065 C.ar    1  UNL1       -0.0194
     26 C         140.2949  141.8436  167.5315 C.ar    1  UNL1       -0.0067
     27 C         140.3465  141.6465  166.0454 C.ar    1  UNL1        0.0004
     28 C         139.7814  140.3987  165.4343 C.ar    1  UNL1        0.0343
     29 C         139.1646  139.3480  166.3092 C.ar    1  UNL1        0.1381
     30 C         139.1129  139.5451  167.7953 C.ar    1  UNL1        0.0326
     31 C         139.6264  140.9901  169.8925 C.3     1  UNL1        0.0290
     32 C         140.2166  142.2249  170.5063 C.3     1  UNL1        0.0367
     33 C         141.6167  142.1996  171.0439 C.3     1  UNL1        0.1426
     34 C         143.6119  142.2532  169.3805 C.3     1  UNL1        0.1741
     35 O         142.6975  141.4849  170.2880 O.3     1  UNL1       -0.3511
     36 O         138.5994  138.1001  165.6981 O.3     1  UNL1       -0.4728
     37 C         139.0599  137.6541  164.3420 C.3     1  UNL1        0.2373
     38 C         140.4751  137.1983  164.1428 C.3     1  UNL1        0.1894
     39 O         140.9939  136.9459  162.7583 O.3     1  UNL1       -0.3471
     40 C         141.8076  137.9946  162.0596 C.3     1  UNL1        0.1743
@<TRIPOS>BOND
     1    34    35    1
     2    35    33    1
     3    33    32    1
     4    32    31    1
     5    31    25    1
     6    25    26   ar
     7    26    27   ar
     8    27    24    1
     9    24     1    1
    10     1     2   am
    11     2     3    2
    12     4     2    1
    13     4     5    1
    14     5     6    1
    15     6     7    1
    16     7     8    1
    17     8     9    1
    18     9    10    1
    19     9    13    1
    20    13    14   ar
    21    14    15   ar
    22    15    16   ar
    23    16    17    1
    24    16    18   ar
    25    18    19    1
    26    18    20   ar
    27     1    21    1
    28    21    22    1
    29    22    23    1
    30    27    28   ar
    31    28    29   ar
    32    29    36    1
    33    36    37    1
    34    37    38    1
    35    38    39    1
    36    39    40    1
    37    29    30   ar
    38    30    25   ar
    39     9     4    1
    40    20    13   ar
    41    23    21    1
    42     6    11    1
    43    10    12    1
@<TRIPOS>MOLECULE
*****
 40 43 0 0 0
SMALL
GASTEIGER

@<TRIPOS>ATOM
      1 N         139.3161  141.3335  163.1339 N.am    1  UNL1       -0.2770
      2 C         138.9220  142.7475  162.8250 C.2     1  UNL1        0.2294
      3 O         138.5222  143.0086  163.4634 O.2     1  UNL1       -0.2747
      4 C         139.3049  143.3630  161.5118 C.3     1  UNL1        0.1208
      5 C         138.8023  142.7680  160.2298 C.3     1  UNL1        0.0804
      6 N         139.1852  143.3835  158.9165 N.3     1  UNL1       -0.2969
      7 C         140.0705  144.5940  158.8853 C.3     1  UNL1        0.0714
      8 C         140.5730  145.1890  160.1673 C.3     1  UNL1        0.0487
      9 C         140.1902  144.5735  161.4805 C.3     1  UNL1        0.1177
     10 O         141.0458  145.7069  161.9636 O.3     1  UNL1       -0.3821
     11 H         138.3167  143.6418  158.4481 H       1  UNL1        0.1233
     12 H         141.3752  146.2104  161.2028 H       1  UNL1        0.2107
     13 C         140.1045  144.3516  162.9615 C.ar    1  UNL1        0.0046
     14 C         141.1966  143.6093  163.6732 C.ar    1  UNL1        0.0004
     15 C         141.1108  143.3875  165.1542 C.ar    1  UNL1        0.0317
     16 C         139.9330  143.9078  165.9236 C.ar    1  UNL1        0.1674
     17 F         139.8473  143.6859  167.4047 F       1  UNL1       -0.2018
     18 C         138.8409  144.6501  165.2120 C.ar    1  UNL1        0.1671
     19 F         137.6631  145.1704  165.9814 F       1  UNL1       -0.2018
     20 C         138.9267  144.8719  163.7309 C.ar    1  UNL1        0.0299
     21 C         140.0931  140.5351  162.1295 C.3     1  UNL1        0.0758
     22 C         141.3532  140.3011  161.3502 C.3     1  UNL1        0.0215
     23 C         140.1786  139.3861  161.1691 C.3     1  UNL1        0.0215
     24 C         138.9333  140.7180  164.4471 C.3     1  UNL1        0.1201
     25 C         140.7665  140.0094  167.8949 C.ar    1  UNL1       -0.0194
     26 C         139.7041  140.3887  166.9063 C.ar    1  UNL1       -0.0067
     27 C         139.9958  140.3387  165.4357 C.ar    1  UNL1        0.0004
     28 C         141.3499  139.9096  164.9538 C.ar    1  UNL1        0.0343
     29 C         142.4123  139.5303  165.9425 C.ar    1  UNL1        0.1381
     30 C         142.1206  139.5803  167.4130 C.ar    1  UNL1        0.0326
     31 C         140.4749  140.0593  169.3654 C.3     1  UNL1        0.0290
     32 C         139.4719  141.0391  169.8983 C.3     1  UNL1        0.0367
     33 C         139.9182  142.3972  170.3527 C.3     1  UNL1        0.1426
     34 C         142.4269  143.0706  170.2964 C.3     1  UNL1        0.1741
     35 O         141.2359  142.5588  171.0511 O.3     1  UNL1       -0.3511
     36 O         143.7664  139.1012  165.4606 O.3     1  UNL1       -0.4728
     37 C         144.2320  139.4893  164.0886 C.3     1  UNL1        0.2373
     38 C         145.2270  140.5992  163.9202 C.3     1  UNL1        0.1894
     39 O         145.4279  141.2285  162.5736 O.3     1  UNL1       -0.3471
     40 C         144.8021  142.5564  162.2654 C.3     1  UNL1        0.1743
@<TRIPOS>BOND
     1    34    35    1
     2    35    33    1
     3    33    32    1
     4    32    31    1
     5    31    25    1
     6    25    26   ar
     7    26    27   ar
     8    27    24    1
     9    24     1    1
    10     1     2   am
    11     2     3    2
    12     4     2    1
    13     4     5    1
    14     5     6    1
    15     6     7    1
    16     7     8    1
    17     8     9    1
    18     9    10    1
    19     9    13    1
    20    13    14   ar
    21    14    15   ar
    22    15    16   ar
    23    16    17    1
    24    16    18   ar
    25    18    19    1
    26    18    20   ar
    27     1    21    1
    28    21    22    1
    29    22    23    1
    30    27    28   ar
    31    28    29   ar
    32    29    36    1
    33    36    37    1
    34    37    38    1
    35    38    39    1
    36    39    40    1
    37    29    30   ar
    38    30    25   ar
    39     9     4    1
    40    20    13   ar
    41    23    21    1
    42     6    11    1
    43    10    12    1
@<TRIPOS>MOLECULE
*****
 40 43 0 0 0
SMALL
GASTEIGER

@<TRIPOS>ATOM
      1 N         140.6185  143.6924  164.2939 N.am    1  UNL1       -0.2770
      2 C         141.6038  144.2310  163.2993 C.2     1  UNL1        0.2294
      3 O         142.3142  144.2099  163.6603 O.2     1  UNL1       -0.2747
      4 C         141.1367  144.6698  161.9431 C.3     1  UNL1        0.1208
      5 C         140.1191  145.7648  161.8183 C.3     1  UNL1        0.0804
      6 N         139.6520  146.2036  160.4621 N.3     1  UNL1       -0.2969
      7 C         140.2026  145.5474  159.2307 C.3     1  UNL1        0.0714
      8 C         141.2201  144.4525  159.3555 C.3     1  UNL1        0.0487
      9 C         141.6872  144.0136  160.7117 C.3     1  UNL1        0.1177
     10 O         142.4976  143.0942  159.8470 O.3     1  UNL1       -0.3821
     11 H         139.8638  147.1984  160.3854 H       1  UNL1        0.1233
     12 H         142.2960  143.2665  158.9139 H       1  UNL1        0.2107
     13 C         142.4357  143.2555  161.7676 C.ar    1  UNL1        0.0046
     14 C         143.6969  143.8242  162.3473 C.ar    1  UNL1        0.0004
     15 C         144.4454  143.0660  163.4031 C.ar    1  UNL1        0.0317
     16 C         143.9327  141.7392  163.8794 C.ar    1  UNL1        0.1674
     17 F         144.6813  140.9811  164.9353 F       1  UNL1       -0.2018
     18 C         142.6716  141.1705  163.2998 C.ar    1  UNL1        0.1671
     19 F         142.1589  139.8438  163.7759 F       1  UNL1       -0.2018
     20 C         141.9230  141.9288  162.2438 C.ar    1  UNL1        0.0299
     21 C         139.1662  143.5926  163.9322 C.3     1  UNL1        0.0758
     22 C         138.0753  143.0038  163.0877 C.3     1  UNL1        0.0215
     23 C         137.7416  144.0085  164.1503 C.3     1  UNL1        0.0215
     24 C         141.0855  143.2536  165.6501 C.3     1  UNL1        0.1201
     25 C         139.1455  139.8287  166.1571 C.ar    1  UNL1       -0.0194
     26 C         139.7848  141.0102  165.4898 C.ar    1  UNL1       -0.0067
     27 C         140.4462  142.0720  166.3175 C.ar    1  UNL1        0.0004
     28 C         140.4683  141.9524  167.8125 C.ar    1  UNL1        0.0343
     29 C         139.8290  140.7709  168.4798 C.ar    1  UNL1        0.1381
     30 C         139.1676  139.7091  167.6521 C.ar    1  UNL1        0.0326
     31 C         138.4842  138.7669  165.3294 C.3     1  UNL1        0.0290
     32 C         138.9451  138.5155  163.9243 C.3     1  UNL1        0.0367
     33 C         139.9009  137.3956  163.6376 C.3     1  UNL1        0.1426
     34 C         140.3411  138.3660  161.2681 C.3     1  UNL1        0.1741
     35 O         140.5339  137.2782  162.2827 O.3     1  UNL1       -0.3511
     36 O         139.8511  140.6512  169.9749 O.3     1  UNL1       -0.4728
     37 C         141.1042  140.2143  170.6739 C.3     1  UNL1        0.2373
     38 C         142.0383  139.2494  170.0056 C.3     1  UNL1        0.1894
     39 O         142.9719  139.7294  168.9342 O.3     1  UNL1       -0.3471
     40 C         142.9197  139.1186  167.5652 C.3     1  UNL1        0.1743
@<TRIPOS>BOND
     1    34    35    1
     2    35    33    1
     3    33    32    1
     4    32    31    1
     5    31    25    1
     6    25    26   ar
     7    26    27   ar
     8    27    24    1
     9    24     1    1
    10     1     2   am
    11     2     3    2
    12     4     2    1
    13     4     5    1
    14     5     6    1
    15     6     7    1
    16     7     8    1
    17     8     9    1
    18     9    10    1
    19     9    13    1
    20    13    14   ar
    21    14    15   ar
    22    15    16   ar
    23    16    17    1
    24    16    18   ar
    25    18    19    1
    26    18    20   ar
    27     1    21    1
    28    21    22    1
    29    22    23    1
    30    27    28   ar
    31    28    29   ar
    32    29    36    1
    33    36    37    1
    34    37    38    1
    35    38    39    1
    36    39    40    1
    37    29    30   ar
    38    30    25   ar
    39     9     4    1
    40    20    13   ar
    41    23    21    1
    42     6    11    1
    43    10    12    1
