@<TRIPOS>MOLECULE
*****
 41 45 0 0 0
SMALL
GASTEIGER

@<TRIPOS>ATOM
      1 C         137.9258  138.3389  166.9780 C.3     1  UNL1        0.1700
      2 O         136.6985  138.0397  167.7869 O.3     1  UNL1       -0.3793
      3 H         136.6065  138.7003  168.4912 H       1  UNL1        0.2106
      4 C         138.7845  139.5184  167.3263 C.3     1  UNL1        0.2358
      5 O         139.6019  139.5057  168.5840 O.3     1  UNL1       -0.4727
      6 C         141.7404  140.9744  168.7238 C.ar    1  UNL1        0.0686
      7 C         142.4297  142.2251  169.1830 C.ar    1  UNL1        0.0059
      8 C         141.6697  143.2576  169.9615 C.ar    1  UNL1        0.0003
      9 C         140.2203  143.0396  170.2809 C.ar    1  UNL1        0.0031
     10 C         139.5311  141.7890  169.8217 C.ar    1  UNL1        0.0370
     11 C         140.2912  140.7564  169.0432 C.ar    1  UNL1        0.1413
     12 O         143.1413  138.7874  168.6570 O.2     1  UNL1       -0.2912
     13 C         142.5004  139.9418  167.9453 C.2     1  UNL1        0.1763
     14 C         142.6196  140.0637  166.4549 C.3     1  UNL1        0.0739
     15 C         141.8141  141.0936  165.7198 C.3     1  UNL1        0.0345
     16 C         142.4650  142.3618  165.2530 C.ar    1  UNL1       -0.0217
     17 C         143.7646  142.8044  165.8574 C.ar    1  UNL1       -0.0043
     18 C         144.4154  144.0726  165.3906 C.ar    1  UNL1       -0.0003
     19 C         143.7667  144.8983  164.3194 C.ar    1  UNL1       -0.0000
     20 C         142.4672  144.4557  163.7150 C.ar    1  UNL1       -0.0003
     21 C         141.8163  143.1875  164.1818 C.ar    1  UNL1       -0.0043
     22 C         138.2943  137.4586  165.8208 C.3     1  UNL1        0.1056
     23 N         139.2725  137.9427  164.7918 N.3     1  UNL1       -0.2682
     24 C         138.9304  139.1198  163.9272 C.3     1  UNL1        0.0897
     25 C         139.9086  139.6040  162.8982 C.3     1  UNL1        0.0901
     26 N         141.2287  138.9111  162.7338 N.3     1  UNL1       -0.2644
     27 C         141.5707  137.7340  163.5984 C.3     1  UNL1        0.0901
     28 C         140.5926  137.2499  164.6274 C.3     1  UNL1        0.0897
     29 C         142.2068  139.3953  161.7048 C.3     1  UNL1        0.1031
     30 C         142.0136  139.0395  160.2605 C.ar    1  UNL1       -0.0036
     31 C         142.8482  137.9611  159.6355 C.ar    1  UNL1       -0.0026
     32 C         142.6550  137.6054  158.1912 C.ar    1  UNL1       -0.0003
     33 C         141.6273  138.3281  157.3718 C.ar    1  UNL1       -0.0000
     34 C         140.7927  139.4065  157.9967 C.ar    1  UNL1       -0.0003
     35 C         140.9859  139.7622  159.4411 C.ar    1  UNL1       -0.0026
     36 C         143.3782  140.2352  162.1201 C.ar    1  UNL1       -0.0036
     37 C         144.2558  139.7907  163.2525 C.ar    1  UNL1       -0.0026
     38 C         145.4272  140.6307  163.6678 C.ar    1  UNL1       -0.0003
     39 C         145.7209  141.9150  162.9507 C.ar    1  UNL1       -0.0000
     40 C         144.8432  142.3595  161.8184 C.ar    1  UNL1       -0.0003
     41 C         143.6719  141.5196  161.4031 C.ar    1  UNL1       -0.0026
@<TRIPOS>BOND
     1    12    13    2
     2    13    14    1
     3    14    15    1
     4    15    16    1
     5    16    17   ar
     6    17    18   ar
     7    18    19   ar
     8    19    20   ar
     9    20    21   ar
    10    13     6    1
    11     6     7   ar
    12     7     8   ar
    13     8     9   ar
    14     9    10   ar
    15    10    11   ar
    16    11     5    1
    17     5     4    1
    18     4     1    1
    19     1     2    1
    20     1    22    1
    21    22    23    1
    22    23    24    1
    23    24    25    1
    24    25    26    1
    25    26    29    1
    26    29    30    1
    27    30    31   ar
    28    31    32   ar
    29    32    33   ar
    30    33    34   ar
    31    34    35   ar
    32    29    36    1
    33    36    37   ar
    34    37    38   ar
    35    38    39   ar
    36    39    40   ar
    37    40    41   ar
    38    26    27    1
    39    27    28    1
    40    21    16   ar
    41    11     6   ar
    42    28    23    1
    43    35    30   ar
    44    41    36   ar
    45     2     3    1
@<TRIPOS>MOLECULE
*****
 41 45 0 0 0
SMALL
GASTEIGER

@<TRIPOS>ATOM
      1 C         140.0270  145.7005  161.3255 C.3     1  UNL1        0.1700
      2 O         138.9614  146.7378  161.1291 O.3     1  UNL1       -0.3793
      3 H         138.4963  146.5697  160.2946 H       1  UNL1        0.2106
      4 C         140.2254  144.6254  160.2984 C.3     1  UNL1        0.2358
      5 O         139.1449  143.6144  160.0525 O.3     1  UNL1       -0.4727
      6 C         139.4733  141.2640  161.1098 C.ar    1  UNL1        0.0686
      7 C         139.1338  140.2567  162.1681 C.ar    1  UNL1        0.0059
      8 C         138.1264  140.5925  163.2275 C.ar    1  UNL1        0.0003
      9 C         137.4584  141.9356  163.2286 C.ar    1  UNL1        0.0031
     10 C         137.7979  142.9429  162.1703 C.ar    1  UNL1        0.0370
     11 C         138.8054  142.6071  161.1109 C.ar    1  UNL1        0.1413
     12 O         140.0897  140.0586  158.8924 O.2     1  UNL1       -0.2912
     13 C         140.4806  140.9283  160.0504 C.2     1  UNL1        0.1763
     14 C         141.8790  141.4622  160.1489 C.3     1  UNL1        0.0739
     15 C         143.0268  140.5222  160.3699 C.3     1  UNL1        0.0345
     16 C         143.7767  140.5465  161.6688 C.ar    1  UNL1       -0.0217
     17 C         143.5041  139.5035  162.7118 C.ar    1  UNL1       -0.0043
     18 C         144.2540  139.5278  164.0107 C.ar    1  UNL1       -0.0003
     19 C         145.2765  140.5950  164.2665 C.ar    1  UNL1       -0.0000
     20 C         145.5491  141.6380  163.2236 C.ar    1  UNL1       -0.0003
     21 C         144.7992  141.6137  161.9247 C.ar    1  UNL1       -0.0043
     22 C         140.8941  145.7382  162.5488 C.3     1  UNL1        0.1056
     23 N         140.8281  144.6229  163.5496 N.3     1  UNL1       -0.2682
     24 C         141.7870  143.4732  163.4556 C.3     1  UNL1        0.0897
     25 C         141.7210  142.3578  164.4564 C.3     1  UNL1        0.0901
     26 N         140.6962  142.3921  165.5512 N.3     1  UNL1       -0.2644
     27 C         139.7373  143.5417  165.6452 C.3     1  UNL1        0.0901
     28 C         139.8033  144.6571  164.6444 C.3     1  UNL1        0.0897
     29 C         140.6302  141.2767  166.5520 C.3     1  UNL1        0.1031
     30 C         140.0275  139.9583  166.1669 C.ar    1  UNL1       -0.0036
     31 C         140.7930  139.0106  165.2917 C.ar    1  UNL1       -0.0026
     32 C         140.1902  137.6921  164.9067 C.ar    1  UNL1       -0.0003
     33 C         138.8219  137.3213  165.3968 C.ar    1  UNL1       -0.0000
     34 C         138.0564  138.2689  166.2720 C.ar    1  UNL1       -0.0003
     35 C         138.6592  139.5874  166.6571 C.ar    1  UNL1       -0.0026
     36 C         141.1670  141.4798  167.9378 C.ar    1  UNL1       -0.0036
     37 C         140.2543  141.9395  169.0358 C.ar    1  UNL1       -0.0026
     38 C         140.7912  142.1426  170.4217 C.ar    1  UNL1       -0.0003
     39 C         142.2407  141.8860  170.7095 C.ar    1  UNL1       -0.0000
     40 C         143.1535  141.4262  169.6115 C.ar    1  UNL1       -0.0003
     41 C         142.6167  141.2231  168.2257 C.ar    1  UNL1       -0.0026
@<TRIPOS>BOND
     1    12    13    2
     2    13    14    1
     3    14    15    1
     4    15    16    1
     5    16    17   ar
     6    17    18   ar
     7    18    19   ar
     8    19    20   ar
     9    20    21   ar
    10    13     6    1
    11     6     7   ar
    12     7     8   ar
    13     8     9   ar
    14     9    10   ar
    15    10    11   ar
    16    11     5    1
    17     5     4    1
    18     4     1    1
    19     1     2    1
    20     1    22    1
    21    22    23    1
    22    23    24    1
    23    24    25    1
    24    25    26    1
    25    26    29    1
    26    29    30    1
    27    30    31   ar
    28    31    32   ar
    29    32    33   ar
    30    33    34   ar
    31    34    35   ar
    32    29    36    1
    33    36    37   ar
    34    37    38   ar
    35    38    39   ar
    36    39    40   ar
    37    40    41   ar
    38    26    27    1
    39    27    28    1
    40    21    16   ar
    41    11     6   ar
    42    28    23    1
    43    35    30   ar
    44    41    36   ar
    45     2     3    1
@<TRIPOS>MOLECULE
*****
 41 45 0 0 0
SMALL
GASTEIGER

@<TRIPOS>ATOM
      1 C         139.9628  145.7415  161.3395 C.3     1  UNL1        0.1700
      2 O         138.9799  146.8062  160.9518 O.3     1  UNL1       -0.3793
      3 H         138.5807  146.5819  160.0967 H       1  UNL1        0.2106
      4 C         140.1882  144.5644  160.4374 C.3     1  UNL1        0.2358
      5 O         139.0629  143.6161  160.1466 O.3     1  UNL1       -0.4727
      6 C         139.3497  141.1681  160.9684 C.ar    1  UNL1        0.0686
      7 C         139.0171  140.0777  161.9433 C.ar    1  UNL1        0.0059
      8 C         138.0650  140.3448  163.0712 C.ar    1  UNL1        0.0003
      9 C         137.4456  141.7024  163.2243 C.ar    1  UNL1        0.0031
     10 C         137.7782  142.7928  162.2495 C.ar    1  UNL1        0.0370
     11 C         138.7303  142.5256  161.1215 C.ar    1  UNL1        0.1413
     12 O         139.8792  141.1611  158.4249 O.2     1  UNL1       -0.2912
     13 C         140.3017  140.9010  159.8405 C.2     1  UNL1        0.1763
     14 C         141.6763  140.3739  160.1281 C.3     1  UNL1        0.0739
     15 C         142.7808  141.3201  160.4952 C.3     1  UNL1        0.0345
     16 C         143.6296  141.0501  161.7021 C.ar    1  UNL1       -0.0217
     17 C         144.7611  141.9732  162.0450 C.ar    1  UNL1       -0.0043
     18 C         145.6098  141.7032  163.2520 C.ar    1  UNL1       -0.0003
     19 C         145.3271  140.5101  164.1160 C.ar    1  UNL1       -0.0000
     20 C         144.1956  139.5870  163.7731 C.ar    1  UNL1       -0.0003
     21 C         143.3469  139.8570  162.5662 C.ar    1  UNL1       -0.0043
     22 C         140.7204  145.8538  162.6292 C.3     1  UNL1        0.1056
     23 N         140.6951  144.7233  163.6148 N.3     1  UNL1       -0.2682
     24 C         139.6056  144.6489  164.6430 C.3     1  UNL1        0.0897
     25 C         139.5804  143.5184  165.6286 C.3     1  UNL1        0.0901
     26 N         140.6447  142.4623  165.5859 N.3     1  UNL1       -0.2644
     27 C         141.7342  142.5367  164.5577 C.3     1  UNL1        0.0901
     28 C         141.7594  143.6672  163.5721 C.3     1  UNL1        0.0897
     29 C         140.6194  141.3318  166.5715 C.3     1  UNL1        0.1031
     30 C         141.1994  141.5186  167.9421 C.ar    1  UNL1       -0.0036
     31 C         142.5242  140.9048  168.2860 C.ar    1  UNL1       -0.0026
     32 C         143.1041  141.0916  169.6567 C.ar    1  UNL1       -0.0003
     33 C         142.3593  141.8923  170.6834 C.ar    1  UNL1       -0.0000
     34 C         141.0346  142.5061  170.3396 C.ar    1  UNL1       -0.0003
     35 C         140.4546  142.3193  168.9689 C.ar    1  UNL1       -0.0026
     36 C         140.0142  140.0145  166.1864 C.ar    1  UNL1       -0.0036
     37 C         140.7648  139.0790  165.2855 C.ar    1  UNL1       -0.0026
     38 C         140.1595  137.7616  164.9004 C.ar    1  UNL1       -0.0003
     39 C         138.8038  137.3797  165.4162 C.ar    1  UNL1       -0.0000
     40 C         138.0533  138.3152  166.3171 C.ar    1  UNL1       -0.0003
     41 C         138.6584  139.6325  166.7022 C.ar    1  UNL1       -0.0026
@<TRIPOS>BOND
     1    12    13    2
     2    13    14    1
     3    14    15    1
     4    15    16    1
     5    16    17   ar
     6    17    18   ar
     7    18    19   ar
     8    19    20   ar
     9    20    21   ar
    10    13     6    1
    11     6     7   ar
    12     7     8   ar
    13     8     9   ar
    14     9    10   ar
    15    10    11   ar
    16    11     5    1
    17     5     4    1
    18     4     1    1
    19     1     2    1
    20     1    22    1
    21    22    23    1
    22    23    24    1
    23    24    25    1
    24    25    26    1
    25    26    29    1
    26    29    30    1
    27    30    31   ar
    28    31    32   ar
    29    32    33   ar
    30    33    34   ar
    31    34    35   ar
    32    29    36    1
    33    36    37   ar
    34    37    38   ar
    35    38    39   ar
    36    39    40   ar
    37    40    41   ar
    38    26    27    1
    39    27    28    1
    40    21    16   ar
    41    11     6   ar
    42    28    23    1
    43    35    30   ar
    44    41    36   ar
    45     2     3    1
@<TRIPOS>MOLECULE
*****
 41 45 0 0 0
SMALL
GASTEIGER

@<TRIPOS>ATOM
      1 C         140.0299  145.5774  161.5177 C.3     1  UNL1        0.1700
      2 O         139.0799  146.7084  161.2559 O.3     1  UNL1       -0.3793
      3 H         138.5948  146.5393  160.4331 H       1  UNL1        0.2106
      4 C         140.1067  144.4255  160.5600 C.3     1  UNL1        0.2358
      5 O         138.8803  143.6145  160.2624 O.3     1  UNL1       -0.4727
      6 C         138.9540  141.0394  160.5990 C.ar    1  UNL1        0.0686
      7 C         138.6377  139.8277  161.4245 C.ar    1  UNL1        0.0059
      8 C         137.9312  139.9792  162.7390 C.ar    1  UNL1        0.0003
      9 C         137.5411  141.3426  163.2280 C.ar    1  UNL1        0.0031
     10 C         137.8575  142.5544  162.4025 C.ar    1  UNL1        0.0370
     11 C         138.5640  142.4028  161.0879 C.ar    1  UNL1        0.1413
     12 O         138.9260  141.1516  158.0035 O.2     1  UNL1       -0.2912
     13 C         139.6605  140.8879  159.2845 C.2     1  UNL1        0.1763
     14 C         141.1015  140.4726  159.2510 C.3     1  UNL1        0.0739
     15 C         142.1275  141.2625  160.0081 C.3     1  UNL1        0.0345
     16 C         142.8765  140.6273  161.1420 C.ar    1  UNL1       -0.0217
     17 C         144.1350  141.2601  161.6573 C.ar    1  UNL1       -0.0043
     18 C         144.8839  140.6249  162.7912 C.ar    1  UNL1       -0.0003
     19 C         144.3742  139.3569  163.4097 C.ar    1  UNL1       -0.0000
     20 C         143.1156  138.7242  162.8943 C.ar    1  UNL1       -0.0003
     21 C         142.3668  139.3594  161.7605 C.ar    1  UNL1       -0.0043
     22 C         140.9030  145.5984  162.7372 C.3     1  UNL1        0.1056
     23 N         140.8943  144.4366  163.6859 N.3     1  UNL1       -0.2682
     24 C         139.8623  144.3628  164.7719 C.3     1  UNL1        0.0897
     25 C         139.8535  143.2011  165.7207 C.3     1  UNL1        0.0901
     26 N         140.8769  142.1130  165.5835 N.3     1  UNL1       -0.2644
     27 C         141.9089  142.1867  164.4975 C.3     1  UNL1        0.0901
     28 C         141.9176  143.3485  163.5487 C.3     1  UNL1        0.0897
     29 C         140.8682  140.9512  166.5322 C.3     1  UNL1        0.1031
     30 C         140.0222  139.7482  166.2371 C.ar    1  UNL1       -0.0036
     31 C         140.4970  138.7206  165.2529 C.ar    1  UNL1       -0.0026
     32 C         139.6510  137.5176  164.9578 C.ar    1  UNL1       -0.0003
     33 C         138.3303  137.3422  165.6468 C.ar    1  UNL1       -0.0000
     34 C         137.8555  138.3697  166.6310 C.ar    1  UNL1       -0.0003
     35 C         138.7014  139.5728  166.9262 C.ar    1  UNL1       -0.0026
     36 C         141.7054  140.9924  167.7761 C.ar    1  UNL1       -0.0036
     37 C         142.4498  142.2433  168.1381 C.ar    1  UNL1       -0.0026
     38 C         143.2870  142.2845  169.3821 C.ar    1  UNL1       -0.0003
     39 C         143.3799  141.0747  170.2640 C.ar    1  UNL1       -0.0000
     40 C         142.6355  139.8238  169.9020 C.ar    1  UNL1       -0.0003
     41 C         141.7982  139.7826  168.6581 C.ar    1  UNL1       -0.0026
@<TRIPOS>BOND
     1    12    13    2
     2    13    14    1
     3    14    15    1
     4    15    16    1
     5    16    17   ar
     6    17    18   ar
     7    18    19   ar
     8    19    20   ar
     9    20    21   ar
    10    13     6    1
    11     6     7   ar
    12     7     8   ar
    13     8     9   ar
    14     9    10   ar
    15    10    11   ar
    16    11     5    1
    17     5     4    1
    18     4     1    1
    19     1     2    1
    20     1    22    1
    21    22    23    1
    22    23    24    1
    23    24    25    1
    24    25    26    1
    25    26    29    1
    26    29    30    1
    27    30    31   ar
    28    31    32   ar
    29    32    33   ar
    30    33    34   ar
    31    34    35   ar
    32    29    36    1
    33    36    37   ar
    34    37    38   ar
    35    38    39   ar
    36    39    40   ar
    37    40    41   ar
    38    26    27    1
    39    27    28    1
    40    21    16   ar
    41    11     6   ar
    42    28    23    1
    43    35    30   ar
    44    41    36   ar
    45     2     3    1
@<TRIPOS>MOLECULE
*****
 41 45 0 0 0
SMALL
GASTEIGER

@<TRIPOS>ATOM
      1 C         140.7323  145.1893  160.2492 C.3     1  UNL1        0.1700
      2 O         141.8007  145.8047  159.3948 O.3     1  UNL1       -0.3793
      3 H         141.7987  145.3833  158.5211 H       1  UNL1        0.2106
      4 C         139.8682  144.0947  159.6969 C.3     1  UNL1        0.2358
      5 O         140.2943  142.6627  159.8312 O.3     1  UNL1       -0.4727
      6 C         139.8287  140.2608  160.7051 C.ar    1  UNL1        0.0686
      7 C         139.0505  139.3259  161.5828 C.ar    1  UNL1        0.0059
      8 C         137.9597  139.8580  162.4643 C.ar    1  UNL1        0.0003
      9 C         137.6471  141.3251  162.4681 C.ar    1  UNL1        0.0031
     10 C         138.4253  142.2600  161.5904 C.ar    1  UNL1        0.0370
     11 C         139.5161  141.7278  160.7089 C.ar    1  UNL1        0.1413
     12 O         140.8548  139.9396  158.3400 O.2     1  UNL1       -0.2912
     13 C         140.9195  139.7287  159.8237 C.2     1  UNL1        0.1763
     14 C         142.0750  138.9856  160.4259 C.3     1  UNL1        0.0739
     15 C         142.3563  139.0994  161.8949 C.3     1  UNL1        0.0345
     16 C         143.4714  139.9781  162.3791 C.ar    1  UNL1       -0.0217
     17 C         143.9621  141.1076  161.5228 C.ar    1  UNL1       -0.0043
     18 C         145.0772  141.9863  162.0070 C.ar    1  UNL1       -0.0003
     19 C         145.7015  141.7354  163.3477 C.ar    1  UNL1       -0.0000
     20 C         145.2108  140.6060  164.2040 C.ar    1  UNL1       -0.0003
     21 C         144.0957  139.7273  163.7198 C.ar    1  UNL1       -0.0043
     22 C         140.5281  145.6686  161.6558 C.3     1  UNL1        0.1056
     23 N         140.5443  144.6891  162.7917 N.3     1  UNL1       -0.2682
     24 C         139.4386  144.6978  163.8053 C.3     1  UNL1        0.0897
     25 C         139.4548  143.7183  164.9412 C.3     1  UNL1        0.0901
     26 N         140.5765  142.7300  165.0635 N.3     1  UNL1       -0.2644
     27 C         141.6821  142.7213  164.0498 C.3     1  UNL1        0.0901
     28 C         141.6660  143.7008  162.9139 C.3     1  UNL1        0.0897
     29 C         140.5927  141.7505  166.1994 C.3     1  UNL1        0.1031
     30 C         139.9846  140.3904  166.0255 C.ar    1  UNL1       -0.0036
     31 C         138.6901  140.0551  166.7053 C.ar    1  UNL1       -0.0026
     32 C         138.0820  138.6950  166.5315 C.ar    1  UNL1       -0.0003
     33 C         138.7683  137.6701  165.6779 C.ar    1  UNL1       -0.0000
     34 C         140.0627  138.0053  164.9981 C.ar    1  UNL1       -0.0003
     35 C         140.6709  139.3655  165.1719 C.ar    1  UNL1       -0.0026
     36 C         141.2169  142.1311  167.5091 C.ar    1  UNL1       -0.0036
     37 C         142.6326  141.7357  167.8082 C.ar    1  UNL1       -0.0026
     38 C         143.2568  142.1163  169.1180 C.ar    1  UNL1       -0.0003
     39 C         142.4653  142.8923  170.1287 C.ar    1  UNL1       -0.0000
     40 C         141.0497  143.2877  169.8295 C.ar    1  UNL1       -0.0003
     41 C         140.4254  142.9071  168.5198 C.ar    1  UNL1       -0.0026
@<TRIPOS>BOND
     1    12    13    2
     2    13    14    1
     3    14    15    1
     4    15    16    1
     5    16    17   ar
     6    17    18   ar
     7    18    19   ar
     8    19    20   ar
     9    20    21   ar
    10    13     6    1
    11     6     7   ar
    12     7     8   ar
    13     8     9   ar
    14     9    10   ar
    15    10    11   ar
    16    11     5    1
    17     5     4    1
    18     4     1    1
    19     1     2    1
    20     1    22    1
    21    22    23    1
    22    23    24    1
    23    24    25    1
    24    25    26    1
    25    26    29    1
    26    29    30    1
    27    30    31   ar
    28    31    32   ar
    29    32    33   ar
    30    33    34   ar
    31    34    35   ar
    32    29    36    1
    33    36    37   ar
    34    37    38   ar
    35    38    39   ar
    36    39    40   ar
    37    40    41   ar
    38    26    27    1
    39    27    28    1
    40    21    16   ar
    41    11     6   ar
    42    28    23    1
    43    35    30   ar
    44    41    36   ar
    45     2     3    1
@<TRIPOS>MOLECULE
*****
 41 45 0 0 0
SMALL
GASTEIGER

@<TRIPOS>ATOM
      1 C         140.1459  145.8992  161.4356 C.3     1  UNL1        0.1700
      2 O         138.9805  146.7609  161.0492 O.3     1  UNL1       -0.3793
      3 H         138.7322  146.5758  160.1299 H       1  UNL1        0.2106
      4 C         140.7328  144.9416  160.4413 C.3     1  UNL1        0.2358
      5 O         142.1675  144.5207  160.5621 O.3     1  UNL1       -0.4727
      6 C         143.4910  142.3549  160.0071 C.ar    1  UNL1        0.0686
      7 C         144.0855  141.4187  158.9972 C.ar    1  UNL1        0.0059
      8 C         143.9510  141.7118  157.5323 C.ar    1  UNL1        0.0003
      9 C         143.2220  142.9413  157.0773 C.ar    1  UNL1        0.0031
     10 C         142.6275  143.8776  158.0872 C.ar    1  UNL1        0.0370
     11 C         142.7620  143.5844  159.5522 C.ar    1  UNL1        0.1413
     12 O         144.7605  142.6535  162.2542 O.2     1  UNL1       -0.2912
     13 C         143.6255  142.0618  161.4720 C.2     1  UNL1        0.1763
     14 C         142.6251  141.1769  162.1548 C.3     1  UNL1        0.0739
     15 C         141.1623  141.4998  162.0777 C.3     1  UNL1        0.0345
     16 C         140.1539  140.3933  161.9837 C.ar    1  UNL1       -0.0217
     17 C         140.5316  139.0859  161.3531 C.ar    1  UNL1       -0.0043
     18 C         139.5232  137.9795  161.2591 C.ar    1  UNL1       -0.0003
     19 C         138.1370  138.1805  161.7958 C.ar    1  UNL1       -0.0000
     20 C         137.7592  139.4880  162.4265 C.ar    1  UNL1       -0.0003
     21 C         138.7677  140.5944  162.5204 C.ar    1  UNL1       -0.0043
     22 C         140.7244  145.9951  162.8162 C.3     1  UNL1        0.1056
     23 N         140.6159  144.8321  163.7573 N.3     1  UNL1       -0.2682
     24 C         139.2663  144.3073  164.1486 C.3     1  UNL1        0.0897
     25 C         139.1578  143.1443  165.0897 C.3     1  UNL1        0.0901
     26 N         140.3988  142.5061  165.6395 N.3     1  UNL1       -0.2644
     27 C         141.7484  143.0309  165.2483 C.3     1  UNL1        0.0901
     28 C         141.8570  144.1939  164.3071 C.3     1  UNL1        0.0897
     29 C         140.2903  141.3431  166.5807 C.3     1  UNL1        0.1031
     30 C         140.0530  139.9630  166.0432 C.ar    1  UNL1       -0.0036
     31 C         141.1752  139.2070  165.3957 C.ar    1  UNL1       -0.0026
     32 C         140.9379  137.8269  164.8583 C.ar    1  UNL1       -0.0003
     33 C         139.5784  137.2027  164.9683 C.ar    1  UNL1       -0.0000
     34 C         138.4562  137.9586  165.6157 C.ar    1  UNL1       -0.0003
     35 C         138.6935  139.3388  166.1532 C.ar    1  UNL1       -0.0026
     36 C         140.4191  141.5603  168.0592 C.ar    1  UNL1       -0.0036
     37 C         140.4471  142.9540  168.6130 C.ar    1  UNL1       -0.0026
     38 C         140.5759  143.1711  170.0916 C.ar    1  UNL1       -0.0003
     39 C         140.6768  141.9945  171.0165 C.ar    1  UNL1       -0.0000
     40 C         140.6489  140.6008  170.4627 C.ar    1  UNL1       -0.0003
     41 C         140.5200  140.3836  168.9841 C.ar    1  UNL1       -0.0026
@<TRIPOS>BOND
     1    12    13    2
     2    13    14    1
     3    14    15    1
     4    15    16    1
     5    16    17   ar
     6    17    18   ar
     7    18    19   ar
     8    19    20   ar
     9    20    21   ar
    10    13     6    1
    11     6     7   ar
    12     7     8   ar
    13     8     9   ar
    14     9    10   ar
    15    10    11   ar
    16    11     5    1
    17     5     4    1
    18     4     1    1
    19     1     2    1
    20     1    22    1
    21    22    23    1
    22    23    24    1
    23    24    25    1
    24    25    26    1
    25    26    29    1
    26    29    30    1
    27    30    31   ar
    28    31    32   ar
    29    32    33   ar
    30    33    34   ar
    31    34    35   ar
    32    29    36    1
    33    36    37   ar
    34    37    38   ar
    35    38    39   ar
    36    39    40   ar
    37    40    41   ar
    38    26    27    1
    39    27    28    1
    40    21    16   ar
    41    11     6   ar
    42    28    23    1
    43    35    30   ar
    44    41    36   ar
    45     2     3    1
@<TRIPOS>MOLECULE
*****
 41 45 0 0 0
SMALL
GASTEIGER

@<TRIPOS>ATOM
      1 C         140.1799  145.9011  161.4116 C.3     1  UNL1        0.1700
      2 O         138.9129  146.6524  161.1275 O.3     1  UNL1       -0.3793
      3 H         138.6472  146.5018  160.2069 H       1  UNL1        0.2106
      4 C         140.8237  145.0815  160.3328 C.3     1  UNL1        0.2358
      5 O         140.8671  143.5868  160.4515 O.3     1  UNL1       -0.4727
      6 C         139.0038  141.9167  159.7524 C.ar    1  UNL1        0.0686
      7 C         138.3508  141.0621  158.7068 C.ar    1  UNL1        0.0059
      8 C         138.9081  141.0230  157.3148 C.ar    1  UNL1        0.0003
      9 C         140.1185  141.8385  156.9682 C.ar    1  UNL1        0.0031
     10 C         140.7715  142.6931  158.0138 C.ar    1  UNL1        0.0370
     11 C         140.2141  142.7322  159.4059 C.ar    1  UNL1        0.1413
     12 O         137.5901  143.1088  161.5773 O.2     1  UNL1       -0.2912
     13 C         138.4465  141.9559  161.1444 C.2     1  UNL1        0.1763
     14 C         138.7456  140.8421  162.1036 C.3     1  UNL1        0.0739
     15 C         139.4098  139.5892  161.6147 C.3     1  UNL1        0.0345
     16 C         140.8988  139.4400  161.7189 C.ar    1  UNL1       -0.0217
     17 C         141.7311  140.5723  162.2435 C.ar    1  UNL1       -0.0043
     18 C         143.2200  140.4230  162.3478 C.ar    1  UNL1       -0.0003
     19 C         143.8766  139.1415  161.9274 C.ar    1  UNL1       -0.0000
     20 C         143.0443  138.0093  161.4028 C.ar    1  UNL1       -0.0003
     21 C         141.5554  138.1585  161.2986 C.ar    1  UNL1       -0.0043
     22 C         140.8028  145.9694  162.7744 C.3     1  UNL1        0.1056
     23 N         140.7687  144.7708  163.6756 N.3     1  UNL1       -0.2682
     24 C         142.0496  144.1209  164.1080 C.3     1  UNL1        0.0897
     25 C         142.0155  142.9223  165.0092 C.3     1  UNL1        0.0901
     26 N         140.7005  142.3736  165.4780 N.3     1  UNL1       -0.2644
     27 C         139.4197  143.0236  165.0456 C.3     1  UNL1        0.0901
     28 C         139.4538  144.2222  164.1444 C.3     1  UNL1        0.0897
     29 C         140.6664  141.1750  166.3792 C.3     1  UNL1        0.1031
     30 C         140.7554  139.7958  165.7965 C.ar    1  UNL1       -0.0036
     31 C         139.5065  139.0719  165.3884 C.ar    1  UNL1       -0.0026
     32 C         139.5955  137.6927  164.8057 C.ar    1  UNL1       -0.0003
     33 C         140.9333  137.0371  164.6310 C.ar    1  UNL1       -0.0000
     34 C         142.1822  137.7609  165.0391 C.ar    1  UNL1       -0.0003
     35 C         142.0932  139.1402  165.6218 C.ar    1  UNL1       -0.0026
     36 C         140.5433  141.3557  167.8632 C.ar    1  UNL1       -0.0036
     37 C         140.5747  142.7331  168.4562 C.ar    1  UNL1       -0.0026
     38 C         140.4516  142.9138  169.9402 C.ar    1  UNL1       -0.0003
     39 C         140.2971  141.7170  170.8312 C.ar    1  UNL1       -0.0000
     40 C         140.2657  140.3396  170.2382 C.ar    1  UNL1       -0.0003
     41 C         140.3888  140.1589  168.7542 C.ar    1  UNL1       -0.0026
@<TRIPOS>BOND
     1    12    13    2
     2    13    14    1
     3    14    15    1
     4    15    16    1
     5    16    17   ar
     6    17    18   ar
     7    18    19   ar
     8    19    20   ar
     9    20    21   ar
    10    13     6    1
    11     6     7   ar
    12     7     8   ar
    13     8     9   ar
    14     9    10   ar
    15    10    11   ar
    16    11     5    1
    17     5     4    1
    18     4     1    1
    19     1     2    1
    20     1    22    1
    21    22    23    1
    22    23    24    1
    23    24    25    1
    24    25    26    1
    25    26    29    1
    26    29    30    1
    27    30    31   ar
    28    31    32   ar
    29    32    33   ar
    30    33    34   ar
    31    34    35   ar
    32    29    36    1
    33    36    37   ar
    34    37    38   ar
    35    38    39   ar
    36    39    40   ar
    37    40    41   ar
    38    26    27    1
    39    27    28    1
    40    21    16   ar
    41    11     6   ar
    42    28    23    1
    43    35    30   ar
    44    41    36   ar
    45     2     3    1
@<TRIPOS>MOLECULE
*****
 41 45 0 0 0
SMALL
GASTEIGER

@<TRIPOS>ATOM
      1 C         140.0208  145.6373  161.4983 C.3     1  UNL1        0.1700
      2 O         139.2643  146.8576  161.0637 O.3     1  UNL1       -0.3793
      3 H         138.7845  146.6652  160.2430 H       1  UNL1        0.2106
      4 C         139.9491  144.3804  160.6828 C.3     1  UNL1        0.2358
      5 O         138.6391  143.6692  160.5147 O.3     1  UNL1       -0.4727
      6 C         138.5103  141.0743  160.5200 C.ar    1  UNL1        0.0686
      7 C         138.2566  139.7878  161.2483 C.ar    1  UNL1        0.0059
      8 C         137.8780  139.8095  162.6995 C.ar    1  UNL1        0.0003
      9 C         137.7531  141.1179  163.4225 C.ar    1  UNL1        0.0031
     10 C         138.0068  142.4044  162.6943 C.ar    1  UNL1        0.0370
     11 C         138.3854  142.3826  161.2429 C.ar    1  UNL1        0.1413
     12 O         137.9226  141.5482  158.0340 O.2     1  UNL1       -0.2912
     13 C         138.8889  141.0526  159.0687 C.2     1  UNL1        0.1763
     14 C         140.2339  140.5353  158.6522 C.3     1  UNL1        0.0739
     15 C         141.4608  140.9341  159.4174 C.3     1  UNL1        0.0345
     16 C         141.9809  140.0519  160.5135 C.ar    1  UNL1       -0.0217
     17 C         141.5703  138.6106  160.5746 C.ar    1  UNL1       -0.0043
     18 C         142.0904  137.7284  161.6706 C.ar    1  UNL1       -0.0003
     19 C         143.0212  138.2877  162.7054 C.ar    1  UNL1       -0.0000
     20 C         143.4319  139.7290  162.6443 C.ar    1  UNL1       -0.0003
     21 C         142.9118  140.6111  161.5483 C.ar    1  UNL1       -0.0043
     22 C         140.8490  145.6740  162.7484 C.3     1  UNL1        0.1056
     23 N         140.7577  144.5537  163.7417 N.3     1  UNL1       -0.2682
     24 C         139.6673  144.5516  164.7717 C.3     1  UNL1        0.0897
     25 C         139.5760  143.4313  165.7650 C.3     1  UNL1        0.0901
     26 N         140.5751  142.3132  165.7283 N.3     1  UNL1       -0.2644
     27 C         141.6655  142.3153  164.6983 C.3     1  UNL1        0.0901
     28 C         141.7568  143.4355  163.7050 C.3     1  UNL1        0.0897
     29 C         140.4838  141.1929  166.7216 C.3     1  UNL1        0.1031
     30 C         141.0303  141.3724  168.1069 C.ar    1  UNL1       -0.0036
     31 C         140.2376  142.1249  169.1342 C.ar    1  UNL1       -0.0026
     32 C         140.7841  142.3044  170.5195 C.ar    1  UNL1       -0.0003
     33 C         142.1233  141.7315  170.8775 C.ar    1  UNL1       -0.0000
     34 C         142.9160  140.9790  169.8503 C.ar    1  UNL1       -0.0003
     35 C         142.3695  140.7994  168.4649 C.ar    1  UNL1       -0.0026
     36 C         139.8460  139.8931  166.3296 C.ar    1  UNL1       -0.0036
     37 C         138.5492  139.4748  166.9567 C.ar    1  UNL1       -0.0026
     38 C         137.9114  138.1749  166.5646 C.ar    1  UNL1       -0.0003
     39 C         138.5705  137.2934  165.5456 C.ar    1  UNL1       -0.0000
     40 C         139.8673  137.7117  164.9185 C.ar    1  UNL1       -0.0003
     41 C         140.5051  139.0115  165.3105 C.ar    1  UNL1       -0.0026
@<TRIPOS>BOND
     1    12    13    2
     2    13    14    1
     3    14    15    1
     4    15    16    1
     5    16    17   ar
     6    17    18   ar
     7    18    19   ar
     8    19    20   ar
     9    20    21   ar
    10    13     6    1
    11     6     7   ar
    12     7     8   ar
    13     8     9   ar
    14     9    10   ar
    15    10    11   ar
    16    11     5    1
    17     5     4    1
    18     4     1    1
    19     1     2    1
    20     1    22    1
    21    22    23    1
    22    23    24    1
    23    24    25    1
    24    25    26    1
    25    26    29    1
    26    29    30    1
    27    30    31   ar
    28    31    32   ar
    29    32    33   ar
    30    33    34   ar
    31    34    35   ar
    32    29    36    1
    33    36    37   ar
    34    37    38   ar
    35    38    39   ar
    36    39    40   ar
    37    40    41   ar
    38    26    27    1
    39    27    28    1
    40    21    16   ar
    41    11     6   ar
    42    28    23    1
    43    35    30   ar
    44    41    36   ar
    45     2     3    1
@<TRIPOS>MOLECULE
*****
 41 45 0 0 0
SMALL
GASTEIGER

@<TRIPOS>ATOM
      1 C         138.1447  141.7713  157.8194 C.3     1  UNL1        0.1700
      2 O         137.0183  142.5346  157.1880 O.3     1  UNL1       -0.3793
      3 H         137.3533  143.3749  156.8379 H       1  UNL1        0.2106
      4 C         139.5287  142.3496  157.8311 C.3     1  UNL1        0.2358
      5 O         140.0756  142.9608  159.0871 O.3     1  UNL1       -0.4727
      6 C         142.1517  143.5188  160.5460 C.ar    1  UNL1        0.0686
      7 C         143.5549  143.2136  160.9793 C.ar    1  UNL1        0.0059
      8 C         144.2854  142.0451  160.3869 C.ar    1  UNL1        0.0003
      9 C         143.6125  141.1817  159.3612 C.ar    1  UNL1        0.0031
     10 C         142.2093  141.4869  158.9280 C.ar    1  UNL1        0.0370
     11 C         141.4789  142.6555  159.5204 C.ar    1  UNL1        0.1413
     12 O         140.7971  145.7148  160.2412 O.2     1  UNL1       -0.2912
     13 C         141.4212  144.6874  161.1384 C.2     1  UNL1        0.1763
     14 C         141.3149  144.8286  162.6280 C.3     1  UNL1        0.0739
     15 C         140.7984  143.6884  163.4544 C.3     1  UNL1        0.0345
     16 C         141.5967  143.1853  164.6206 C.ar    1  UNL1       -0.0217
     17 C         143.0887  143.3391  164.6303 C.ar    1  UNL1       -0.0043
     18 C         143.8869  142.8361  165.7964 C.ar    1  UNL1       -0.0003
     19 C         143.1931  142.1792  166.9527 C.ar    1  UNL1       -0.0000
     20 C         141.7011  142.0253  166.9430 C.ar    1  UNL1       -0.0003
     21 C         140.9029  142.5284  165.7769 C.ar    1  UNL1       -0.0043
     22 C         137.8872  140.4298  158.4391 C.3     1  UNL1        0.1056
     23 N         138.4501  140.1079  159.7916 N.3     1  UNL1       -0.2682
     24 C         139.3098  138.8927  159.9764 C.3     1  UNL1        0.0897
     25 C         139.8727  138.5707  161.3289 C.3     1  UNL1        0.0901
     26 N         139.5759  139.4640  162.4968 N.3     1  UNL1       -0.2644
     27 C         138.7162  140.6792  162.3121 C.3     1  UNL1        0.0901
     28 C         138.1533  141.0011  160.9595 C.3     1  UNL1        0.0897
     29 C         140.1388  139.1420  163.8494 C.3     1  UNL1        0.1031
     30 C         139.2236  138.7295  164.9638 C.ar    1  UNL1       -0.0036
     31 C         138.7275  139.7509  165.9441 C.ar    1  UNL1       -0.0026
     32 C         137.8122  139.3383  167.0585 C.ar    1  UNL1       -0.0003
     33 C         137.3930  137.9043  167.1928 C.ar    1  UNL1       -0.0000
     34 C         137.8890  136.8830  166.2127 C.ar    1  UNL1       -0.0003
     35 C         138.8043  137.2955  165.0982 C.ar    1  UNL1       -0.0026
     36 C         141.6170  139.2327  164.0875 C.ar    1  UNL1       -0.0036
     37 C         142.4964  139.9253  163.0891 C.ar    1  UNL1       -0.0026
     38 C         143.9747  140.0160  163.3273 C.ar    1  UNL1       -0.0003
     39 C         144.5734  139.4139  164.5638 C.ar    1  UNL1       -0.0000
     40 C         143.6940  138.7212  165.5622 C.ar    1  UNL1       -0.0003
     41 C         142.2158  138.6306  165.3241 C.ar    1  UNL1       -0.0026
@<TRIPOS>BOND
     1    12    13    2
     2    13    14    1
     3    14    15    1
     4    15    16    1
     5    16    17   ar
     6    17    18   ar
     7    18    19   ar
     8    19    20   ar
     9    20    21   ar
    10    13     6    1
    11     6     7   ar
    12     7     8   ar
    13     8     9   ar
    14     9    10   ar
    15    10    11   ar
    16    11     5    1
    17     5     4    1
    18     4     1    1
    19     1     2    1
    20     1    22    1
    21    22    23    1
    22    23    24    1
    23    24    25    1
    24    25    26    1
    25    26    29    1
    26    29    30    1
    27    30    31   ar
    28    31    32   ar
    29    32    33   ar
    30    33    34   ar
    31    34    35   ar
    32    29    36    1
    33    36    37   ar
    34    37    38   ar
    35    38    39   ar
    36    39    40   ar
    37    40    41   ar
    38    26    27    1
    39    27    28    1
    40    21    16   ar
    41    11     6   ar
    42    28    23    1
    43    35    30   ar
    44    41    36   ar
    45     2     3    1
