@<TRIPOS>MOLECULE
*****
 34 38 0 0 0
SMALL
GASTEIGER

@<TRIPOS>ATOM
      1 N         140.7985  144.5828  163.8841 N.3     1  UNL1       -0.2724
      2 C         139.5297  144.6787  163.0897 C.3     1  UNL1        0.0724
      3 C         138.5815  143.6358  163.6030 C.3     1  UNL1        0.0214
      4 C         137.8674  142.5243  164.3134 C.3     1  UNL1        0.0072
      5 C         139.2643  142.8954  164.7146 C.3     1  UNL1        0.0350
      6 C         140.6344  143.4807  164.8882 C.3     1  UNL1        0.0761
      7 C         139.3923  141.8709  165.8026 C.ar    1  UNL1       -0.0207
      8 C         140.2213  142.1664  167.0173 C.ar    1  UNL1       -0.0042
      9 C         140.3494  141.1419  168.1054 C.ar    1  UNL1        0.0005
     10 C         139.6485  139.8218  167.9788 C.ar    1  UNL1        0.0149
     11 C         138.8194  139.5262  166.7641 C.ar    1  UNL1        0.1225
     12 C         138.6914  140.5508  165.6760 C.ar    1  UNL1        0.0107
     13 S         138.1185  138.2061  166.6375 S.3     1  UNL1        0.3126
     14 F         137.6779  139.1925  167.6781 F       1  UNL1       -0.0934
     15 F         136.9769  137.8724  167.5515 F       1  UNL1       -0.0934
     16 F         138.5591  137.2198  165.5969 F       1  UNL1       -0.0934
     17 F         137.4176  136.8861  166.5109 F       1  UNL1       -0.0934
     18 F         139.2600  138.5398  165.7235 F       1  UNL1       -0.0934
     19 C         142.0172  145.4388  163.7055 C.3     1  UNL1        0.0730
     20 C         143.3830  144.8470  163.8909 C.3     1  UNL1        0.0294
     21 C         144.1358  144.3129  162.7085 C.3     1  UNL1        0.0666
     22 S         144.4364  142.8465  162.6108 S.3     1  UNL1       -0.0756
     23 C         141.4985  140.3498  163.0580 C.ar    1  UNL1        0.2029
     24 N         142.1815  140.2349  164.3885 N.ar    1  UNL1       -0.1250
     25 N         143.3652  141.1562  164.3829 N.ar    1  UNL1       -0.1220
     26 C         143.4137  141.8405  163.0490 C.ar    1  UNL1        0.1933
     27 N         142.2600  141.3421  162.2302 N.ar    1  UNL1       -0.2860
     28 C         141.9264  141.7623  160.8293 C.3     1  UNL1        0.1341
     29 C         141.0486  137.1235  163.2533 C.3     1  UNL1        0.0556
     30 C         140.0628  138.1205  162.7202 C.ar    1  UNL1        0.1001
     31 N         138.6972  137.8095  162.1833 N.ar    1  UNL1       -0.2085
     32 C         138.0599  139.1003  161.7617 C.ar    1  UNL1        0.2849
     33 O         139.0317  140.2090  162.0380 O.2     1  UNL1       -0.4283
     34 C         140.2696  139.6034  162.6304 C.ar    1  UNL1        0.1964
@<TRIPOS>BOND
     1    29    30    1
     2    30    31   ar
     3    31    32   ar
     4    32    33   ar
     5    33    34   ar
     6    34    23    1
     7    23    24   ar
     8    24    25   ar
     9    25    26   ar
    10    26    22    1
    11    22    21    1
    12    21    20    1
    13    20    19    1
    14    19     1    1
    15     1     2    1
    16     2     3    1
    17     3     4    1
    18     4     5    1
    19     5     7    1
    20     7     8   ar
    21     8     9   ar
    22     9    10   ar
    23    10    11   ar
    24    11    13    1
    25    13    14    1
    26    13    15    1
    27    13    16    1
    28    13    17    1
    29    13    18    1
    30    11    12   ar
    31     5     6    1
    32    26    27   ar
    33    27    28    1
    34    34    30   ar
    35    27    23   ar
    36     6     1    1
    37     5     3    1
    38    12     7   ar
@<TRIPOS>MOLECULE
*****
 34 38 0 0 0
SMALL
GASTEIGER

@<TRIPOS>ATOM
      1 N         144.2730  140.6761  163.0152 N.3     1  UNL1       -0.2724
      2 C         145.0566  140.2174  164.2091 C.3     1  UNL1        0.0724
      3 C         144.1920  139.2800  164.9989 C.3     1  UNL1        0.0214
      4 C         143.1165  138.4001  165.5637 C.3     1  UNL1        0.0072
      5 C         142.8739  139.1594  164.2930 C.3     1  UNL1        0.0350
      6 C         142.9240  140.0222  163.0670 C.3     1  UNL1        0.0761
      7 C         141.4743  138.6642  164.0793 C.ar    1  UNL1       -0.0207
      8 C         141.0443  138.1940  162.7213 C.ar    1  UNL1       -0.0042
      9 C         139.6446  137.6988  162.5075 C.ar    1  UNL1        0.0005
     10 C         138.6749  137.6738  163.6516 C.ar    1  UNL1        0.0149
     11 C         139.1049  138.1441  165.0096 C.ar    1  UNL1        0.1225
     12 C         140.5046  138.6393  165.2234 C.ar    1  UNL1        0.0107
     13 S         138.1352  138.1192  166.1538 S.3     1  UNL1        0.3126
     14 F         138.5776  139.4299  165.5740 F       1  UNL1       -0.0934
     15 F         137.6079  139.4050  166.7182 F       1  UNL1       -0.0934
     16 F         137.6929  136.8084  166.7335 F       1  UNL1       -0.0934
     17 F         137.1656  138.0942  167.2979 F       1  UNL1       -0.0934
     18 F         138.6625  136.8333  165.5894 F       1  UNL1       -0.0934
     19 C         144.7539  141.6225  161.9554 C.3     1  UNL1        0.0730
     20 C         144.5912  143.1020  162.1413 C.3     1  UNL1        0.0294
     21 C         143.3965  143.6392  162.8721 C.3     1  UNL1        0.0666
     22 S         143.3887  143.6762  164.3716 S.3     1  UNL1       -0.0756
     23 C         140.7468  142.3123  166.8667 C.ar    1  UNL1        0.2029
     24 N         139.8764  142.7100  165.7116 N.ar    1  UNL1       -0.1250
     25 N         140.7601  143.2693  164.6364 N.ar    1  UNL1       -0.1220
     26 C         142.1767  143.2173  165.1269 C.ar    1  UNL1        0.1933
     27 N         142.1684  142.6258  166.5053 N.ar    1  UNL1       -0.2860
     28 C         143.3708  142.3894  167.3705 C.3     1  UNL1        0.1341
     29 C         140.4725  143.8631  169.7249 C.3     1  UNL1        0.0556
     30 C         140.1518  142.4201  169.4704 C.ar    1  UNL1        0.1001
     31 N         139.6486  141.4366  170.4850 N.ar    1  UNL1       -0.2085
     32 C         139.4637  140.1159  169.7983 C.ar    1  UNL1        0.2849
     33 O         139.8526  140.2832  168.3594 O.2     1  UNL1       -0.4283
     34 C         140.2778  141.7073  168.1567 C.ar    1  UNL1        0.1964
@<TRIPOS>BOND
     1    29    30    1
     2    30    31   ar
     3    31    32   ar
     4    32    33   ar
     5    33    34   ar
     6    34    23    1
     7    23    24   ar
     8    24    25   ar
     9    25    26   ar
    10    26    22    1
    11    22    21    1
    12    21    20    1
    13    20    19    1
    14    19     1    1
    15     1     2    1
    16     2     3    1
    17     3     4    1
    18     4     5    1
    19     5     7    1
    20     7     8   ar
    21     8     9   ar
    22     9    10   ar
    23    10    11   ar
    24    11    13    1
    25    13    14    1
    26    13    15    1
    27    13    16    1
    28    13    17    1
    29    13    18    1
    30    11    12   ar
    31     5     6    1
    32    26    27   ar
    33    27    28    1
    34    34    30   ar
    35    27    23   ar
    36     6     1    1
    37     5     3    1
    38    12     7   ar
@<TRIPOS>MOLECULE
*****
 34 38 0 0 0
SMALL
GASTEIGER

@<TRIPOS>ATOM
      1 N         138.2233  140.3181  163.4972 N.3     1  UNL1       -0.2724
      2 C         138.3312  139.0075  162.7755 C.3     1  UNL1        0.0724
      3 C         139.3421  138.1643  163.4945 C.3     1  UNL1        0.0214
      4 C         140.3756  137.5690  164.4041 C.3     1  UNL1        0.0072
      5 C         139.8590  138.9537  164.6605 C.3     1  UNL1        0.0350
      6 C         139.1676  140.2848  164.6622 C.3     1  UNL1        0.0761
      7 C         140.6953  139.2099  165.8791 C.ar    1  UNL1       -0.0207
      8 C         142.1506  138.8465  165.8800 C.ar    1  UNL1       -0.0042
      9 C         142.9869  139.1027  167.0986 C.ar    1  UNL1        0.0005
     10 C         142.3678  139.7222  168.3164 C.ar    1  UNL1        0.0149
     11 C         140.9124  140.0855  168.3156 C.ar    1  UNL1        0.1225
     12 C         140.0762  139.8293  167.0969 C.ar    1  UNL1        0.0107
     13 S         140.2933  140.7050  169.5333 S.3     1  UNL1        0.3126
     14 F         140.3086  141.4562  168.2351 F       1  UNL1       -0.0934
     15 F         139.6895  142.0757  169.4529 F       1  UNL1       -0.0934
     16 F         140.2781  139.9538  170.8315 F       1  UNL1       -0.0934
     17 F         139.6743  141.3245  170.7510 F       1  UNL1       -0.0934
     18 F         140.8971  139.3343  169.6138 F       1  UNL1       -0.0934
     19 C         137.3283  141.4612  163.1200 C.3     1  UNL1        0.0730
     20 C         137.9117  142.7003  162.5082 C.3     1  UNL1        0.0294
     21 C         137.7278  144.0276  163.1822 C.3     1  UNL1        0.0666
     22 S         138.9078  144.7354  163.7795 S.3     1  UNL1       -0.0756
     23 C         142.2077  142.7515  164.2688 C.ar    1  UNL1        0.2029
     24 N         141.6451  142.7256  165.6591 N.ar    1  UNL1       -0.1250
     25 N         140.3405  143.4656  165.6450 N.ar    1  UNL1       -0.1220
     26 C         140.0968  143.9489  164.2460 C.ar    1  UNL1        0.1933
     27 N         141.2509  143.5075  163.3956 N.ar    1  UNL1       -0.2860
     28 C         141.4185  143.7751  161.9292 C.3     1  UNL1        0.1341
     29 C         142.5217  140.1367  162.3417 C.3     1  UNL1        0.0556
     30 C         143.6447  140.9285  162.9434 C.ar    1  UNL1        0.1001
     31 N         145.1091  140.6574  162.7648 N.ar    1  UNL1       -0.2085
     32 C         145.8699  141.6917  163.5403 C.ar    1  UNL1        0.2849
     33 O         144.8757  142.6020  164.1981 O.2     1  UNL1       -0.4283
     34 C         143.5004  142.1303  163.8291 C.ar    1  UNL1        0.1964
@<TRIPOS>BOND
     1    29    30    1
     2    30    31   ar
     3    31    32   ar
     4    32    33   ar
     5    33    34   ar
     6    34    23    1
     7    23    24   ar
     8    24    25   ar
     9    25    26   ar
    10    26    22    1
    11    22    21    1
    12    21    20    1
    13    20    19    1
    14    19     1    1
    15     1     2    1
    16     2     3    1
    17     3     4    1
    18     4     5    1
    19     5     7    1
    20     7     8   ar
    21     8     9   ar
    22     9    10   ar
    23    10    11   ar
    24    11    13    1
    25    13    14    1
    26    13    15    1
    27    13    16    1
    28    13    17    1
    29    13    18    1
    30    11    12   ar
    31     5     6    1
    32    26    27   ar
    33    27    28    1
    34    34    30   ar
    35    27    23   ar
    36     6     1    1
    37     5     3    1
    38    12     7   ar
@<TRIPOS>MOLECULE
*****
 34 38 0 0 0
SMALL
GASTEIGER

@<TRIPOS>ATOM
      1 N         144.0133  141.5181  164.2470 N.3     1  UNL1       -0.2724
      2 C         144.0200  140.1318  163.6743 C.3     1  UNL1        0.0724
      3 C         143.5003  139.1942  164.7235 C.3     1  UNL1        0.0214
      4 C         142.9553  138.5170  165.9459 C.3     1  UNL1        0.0072
      5 C         143.1723  140.0011  165.9447 C.3     1  UNL1        0.0350
      6 C         143.4894  141.4374  165.6502 C.3     1  UNL1        0.0761
      7 C         142.6938  140.2307  167.3476 C.ar    1  UNL1       -0.0207
      8 C         142.6686  139.0946  168.3268 C.ar    1  UNL1       -0.0042
      9 C         142.1901  139.3242  169.7298 C.ar    1  UNL1        0.0005
     10 C         141.7368  140.6898  170.1536 C.ar    1  UNL1        0.0149
     11 C         141.7620  141.8259  169.1744 C.ar    1  UNL1        0.1225
     12 C         142.2405  141.5963  167.7715 C.ar    1  UNL1        0.0107
     13 S         141.3086  143.1915  169.5982 S.3     1  UNL1        0.3126
     14 F         140.4285  142.3462  168.7261 F       1  UNL1       -0.0934
     15 F         139.9751  143.7118  169.1499 F       1  UNL1       -0.0934
     16 F         142.1888  144.0367  170.4704 F       1  UNL1       -0.0934
     17 F         140.8553  144.5570  170.0220 F       1  UNL1       -0.0934
     18 F         142.6421  142.6712  170.0466 F       1  UNL1       -0.0934
     19 C         144.4533  142.7661  163.5405 C.3     1  UNL1        0.0730
     20 C         143.9532  144.1037  163.9995 C.3     1  UNL1        0.0294
     21 C         143.1393  144.9581  163.0735 C.3     1  UNL1        0.0666
     22 S         141.7098  144.6040  162.7882 S.3     1  UNL1       -0.0756
     23 C         140.0544  141.4445  164.3187 C.ar    1  UNL1        0.2029
     24 N         139.8566  142.4395  165.4236 N.ar    1  UNL1       -0.1250
     25 N         140.4527  143.7440  164.9848 N.ar    1  UNL1       -0.1220
     26 C         141.0188  143.5554  163.6086 C.ar    1  UNL1        0.1933
     27 N         140.7727  142.1342  163.1970 N.ar    1  UNL1       -0.2860
     28 C         141.1744  141.5120  161.8925 C.3     1  UNL1        0.1341
     29 C         139.1690  139.7366  166.9547 C.3     1  UNL1        0.0556
     30 C         139.2047  139.2264  165.5446 C.ar    1  UNL1        0.1001
     31 N         138.8396  137.8415  165.0986 N.ar    1  UNL1       -0.2085
     32 C         139.0210  137.7707  163.6113 C.ar    1  UNL1        0.2849
     33 O         139.4982  139.1116  163.1381 O.2     1  UNL1       -0.4283
     34 C         139.6117  140.0113  164.3330 C.ar    1  UNL1        0.1964
@<TRIPOS>BOND
     1    29    30    1
     2    30    31   ar
     3    31    32   ar
     4    32    33   ar
     5    33    34   ar
     6    34    23    1
     7    23    24   ar
     8    24    25   ar
     9    25    26   ar
    10    26    22    1
    11    22    21    1
    12    21    20    1
    13    20    19    1
    14    19     1    1
    15     1     2    1
    16     2     3    1
    17     3     4    1
    18     4     5    1
    19     5     7    1
    20     7     8   ar
    21     8     9   ar
    22     9    10   ar
    23    10    11   ar
    24    11    13    1
    25    13    14    1
    26    13    15    1
    27    13    16    1
    28    13    17    1
    29    13    18    1
    30    11    12   ar
    31     5     6    1
    32    26    27   ar
    33    27    28    1
    34    34    30   ar
    35    27    23   ar
    36     6     1    1
    37     5     3    1
    38    12     7   ar
@<TRIPOS>MOLECULE
*****
 34 38 0 0 0
SMALL
GASTEIGER

@<TRIPOS>ATOM
      1 N         140.4016  143.9783  162.3839 N.3     1  UNL1       -0.2724
      2 C         140.8505  145.3275  162.8616 C.3     1  UNL1        0.0724
      3 C         142.1707  145.1586  163.5535 C.3     1  UNL1        0.0214
      4 C         143.4530  144.6871  164.1725 C.3     1  UNL1        0.0072
      5 C         142.5376  143.7051  163.5034 C.3     1  UNL1        0.0350
      6 C         141.4443  142.9756  162.7805 C.3     1  UNL1        0.0761
      7 C         143.3890  142.4971  163.7601 C.ar    1  UNL1       -0.0207
      8 C         144.8770  142.5781  163.5891 C.ar    1  UNL1       -0.0042
      9 C         145.7284  141.3701  163.8458 C.ar    1  UNL1        0.0005
     10 C         145.0917  140.0810  164.2736 C.ar    1  UNL1        0.0149
     11 C         143.6036  140.0000  164.4446 C.ar    1  UNL1        0.1225
     12 C         142.7523  141.2080  164.1879 C.ar    1  UNL1        0.0107
     13 S         142.9670  138.7109  164.8724 S.3     1  UNL1        0.3126
     14 F         142.8832  139.1499  163.4405 F       1  UNL1       -0.0934
     15 F         142.2465  137.8608  163.8683 F       1  UNL1       -0.0934
     16 F         143.0508  138.2721  166.3042 F       1  UNL1       -0.0934
     17 F         142.3303  137.4219  165.3001 F       1  UNL1       -0.0934
     18 F         143.6874  139.5610  165.8765 F       1  UNL1       -0.0934
     19 C         139.1327  143.6836  161.6402 C.3     1  UNL1        0.0730
     20 C         138.4880  142.3348  161.7620 C.3     1  UNL1        0.0294
     21 C         137.5104  142.0679  162.8680 C.3     1  UNL1        0.0666
     22 S         137.8499  141.0834  163.9476 S.3     1  UNL1       -0.0756
     23 C         140.3311  141.3502  166.9204 C.ar    1  UNL1        0.2029
     24 N         140.1412  142.7965  166.5706 N.ar    1  UNL1       -0.1250
     25 N         139.1887  142.8725  165.4145 N.ar    1  UNL1       -0.1220
     26 C         138.7898  141.4733  165.0497 C.ar    1  UNL1        0.1933
     27 N         139.4959  140.5325  165.9804 N.ar    1  UNL1       -0.2860
     28 C         139.3860  139.0365  165.9725 C.3     1  UNL1        0.1341
     29 C         143.3577  142.3478  167.6235 C.3     1  UNL1        0.0556
     30 C         142.5942  141.2742  168.3408 C.ar    1  UNL1        0.1001
     31 N         143.0879  140.4706  169.5072 N.ar    1  UNL1       -0.2085
     32 C         142.0019  139.5154  169.9048 C.ar    1  UNL1        0.2849
     33 O         140.8371  139.7286  168.9843 O.2     1  UNL1       -0.4283
     34 C         141.2031  140.8156  168.0176 C.ar    1  UNL1        0.1964
@<TRIPOS>BOND
     1    29    30    1
     2    30    31   ar
     3    31    32   ar
     4    32    33   ar
     5    33    34   ar
     6    34    23    1
     7    23    24   ar
     8    24    25   ar
     9    25    26   ar
    10    26    22    1
    11    22    21    1
    12    21    20    1
    13    20    19    1
    14    19     1    1
    15     1     2    1
    16     2     3    1
    17     3     4    1
    18     4     5    1
    19     5     7    1
    20     7     8   ar
    21     8     9   ar
    22     9    10   ar
    23    10    11   ar
    24    11    13    1
    25    13    14    1
    26    13    15    1
    27    13    16    1
    28    13    17    1
    29    13    18    1
    30    11    12   ar
    31     5     6    1
    32    26    27   ar
    33    27    28    1
    34    34    30   ar
    35    27    23   ar
    36     6     1    1
    37     5     3    1
    38    12     7   ar
@<TRIPOS>MOLECULE
*****
 34 38 0 0 0
SMALL
GASTEIGER

@<TRIPOS>ATOM
      1 N         140.8030  144.2799  163.6628 N.3     1  UNL1       -0.2724
      2 C         139.5514  145.0010  164.0676 C.3     1  UNL1        0.0724
      3 C         138.4890  143.9748  164.3287 C.3     1  UNL1        0.0214
      4 C         137.6517  142.7440  164.5133 C.3     1  UNL1        0.0072
      5 C         139.0839  142.6195  164.0854 C.3     1  UNL1        0.0350
      6 C         140.5140  142.8081  163.6739 C.3     1  UNL1        0.0761
      7 C         139.0944  141.1216  164.0069 C.ar    1  UNL1       -0.0207
      8 C         139.6801  140.4375  162.8074 C.ar    1  UNL1       -0.0042
      9 C         139.6906  138.9395  162.7289 C.ar    1  UNL1        0.0005
     10 C         139.1154  138.1257  163.8500 C.ar    1  UNL1        0.0149
     11 C         138.5297  138.8099  165.0496 C.ar    1  UNL1        0.1225
     12 C         138.5192  140.3078  165.1280 C.ar    1  UNL1        0.0107
     13 S         137.9544  137.9961  166.1707 S.3     1  UNL1        0.3126
     14 F         138.7268  137.3231  165.0750 F       1  UNL1       -0.0934
     15 F         138.1515  136.5093  166.1961 F       1  UNL1       -0.0934
     16 F         137.1821  138.6691  167.2663 F       1  UNL1       -0.0934
     17 F         137.3792  137.1823  167.2917 F       1  UNL1       -0.0934
     18 F         137.7573  139.4828  166.1453 F       1  UNL1       -0.0934
     19 C         142.1133  144.9186  163.3092 C.3     1  UNL1        0.0730
     20 C         142.9843  144.3075  162.2519 C.3     1  UNL1        0.0294
     21 C         144.2701  143.6366  162.6349 C.3     1  UNL1        0.0666
     22 S         144.2439  142.3283  163.3683 S.3     1  UNL1       -0.0756
     23 C         143.1214  141.5875  167.0092 C.ar    1  UNL1        0.2029
     24 N         143.8040  142.9122  167.1802 N.ar    1  UNL1       -0.1250
     25 N         144.3075  143.3509  165.8372 N.ar    1  UNL1       -0.1220
     26 C         143.9362  142.2974  164.8361 C.ar    1  UNL1        0.1933
     27 N         143.2031  141.2076  165.5605 N.ar    1  UNL1       -0.2860
     28 C         142.6490  139.9572  164.9443 C.3     1  UNL1        0.1341
     29 C         140.0492  141.9142  168.0603 C.3     1  UNL1        0.0556
     30 C         141.0591  140.9340  168.5793 C.ar    1  UNL1        0.1001
     31 N         140.8342  139.9320  169.6726 N.ar    1  UNL1       -0.2085
     32 C         142.1073  139.1625  169.8651 C.ar    1  UNL1        0.2849
     33 O         143.1190  139.6889  168.8909 O.2     1  UNL1       -0.4283
     34 C         142.4712  140.7839  168.0962 C.ar    1  UNL1        0.1964
@<TRIPOS>BOND
     1    29    30    1
     2    30    31   ar
     3    31    32   ar
     4    32    33   ar
     5    33    34   ar
     6    34    23    1
     7    23    24   ar
     8    24    25   ar
     9    25    26   ar
    10    26    22    1
    11    22    21    1
    12    21    20    1
    13    20    19    1
    14    19     1    1
    15     1     2    1
    16     2     3    1
    17     3     4    1
    18     4     5    1
    19     5     7    1
    20     7     8   ar
    21     8     9   ar
    22     9    10   ar
    23    10    11   ar
    24    11    13    1
    25    13    14    1
    26    13    15    1
    27    13    16    1
    28    13    17    1
    29    13    18    1
    30    11    12   ar
    31     5     6    1
    32    26    27   ar
    33    27    28    1
    34    34    30   ar
    35    27    23   ar
    36     6     1    1
    37     5     3    1
    38    12     7   ar
@<TRIPOS>MOLECULE
*****
 34 38 0 0 0
SMALL
GASTEIGER

@<TRIPOS>ATOM
      1 N         138.5319  143.1739  162.1989 N.3     1  UNL1       -0.2724
      2 C         138.3999  144.5855  162.6889 C.3     1  UNL1        0.0724
      3 C         138.6838  144.5934  164.1618 C.3     1  UNL1        0.0214
      4 C         139.0095  144.2931  165.5948 C.3     1  UNL1        0.0072
      5 C         138.9913  143.1867  164.5821 C.3     1  UNL1        0.0350
      6 C         138.8974  142.3095  163.3690 C.3     1  UNL1        0.0761
      7 C         139.3530  142.0910  165.5405 C.ar    1  UNL1       -0.0207
      8 C         140.3879  142.3319  166.5992 C.ar    1  UNL1       -0.0042
      9 C         140.7496  141.2361  167.5576 C.ar    1  UNL1        0.0005
     10 C         140.0764  139.8994  167.4573 C.ar    1  UNL1        0.0149
     11 C         139.0414  139.6585  166.3985 C.ar    1  UNL1        0.1225
     12 C         138.6798  140.7543  165.4401 C.ar    1  UNL1        0.0107
     13 S         138.3682  138.3219  166.2981 S.3     1  UNL1        0.3126
     14 F         139.4531  138.6898  165.3298 F       1  UNL1       -0.0934
     15 F         138.7799  137.3531  165.2295 F       1  UNL1       -0.0934
     16 F         137.2834  137.9540  167.2664 F       1  UNL1       -0.0934
     17 F         137.6950  136.9852  166.1978 F       1  UNL1       -0.0934
     18 F         137.9566  139.2906  167.3668 F       1  UNL1       -0.0934
     19 C         138.3334  142.7085  160.7869 C.3     1  UNL1        0.0730
     20 C         139.3562  143.0339  159.7391 C.3     1  UNL1        0.0294
     21 C         140.0711  144.3522  159.7726 C.3     1  UNL1        0.0666
     22 S         141.5099  144.4147  160.1919 S.3     1  UNL1       -0.0756
     23 C         142.6543  142.3156  163.2496 C.ar    1  UNL1        0.2029
     24 N         142.4954  143.6712  163.8718 N.ar    1  UNL1       -0.1250
     25 N         142.0474  144.6225  162.8021 N.ar    1  UNL1       -0.1220
     26 C         141.9294  143.8549  161.5188 C.ar    1  UNL1        0.1933
     27 N         142.3045  142.4291  161.7955 N.ar    1  UNL1       -0.2860
     28 C         142.3260  141.3129  160.7937 C.3     1  UNL1        0.1341
     29 C         145.7354  141.3968  163.8088 C.3     1  UNL1        0.0556
     30 C         144.5032  140.6436  164.2145 C.ar    1  UNL1        0.1001
     31 N         144.4710  139.3358  164.9484 N.ar    1  UNL1       -0.2085
     32 C         143.0349  138.9499  165.1449 C.ar    1  UNL1        0.2849
     33 O         142.1796  140.0191  164.5325 O.2     1  UNL1       -0.4283
     34 C         143.0871  141.0659  163.9575 C.ar    1  UNL1        0.1964
@<TRIPOS>BOND
     1    29    30    1
     2    30    31   ar
     3    31    32   ar
     4    32    33   ar
     5    33    34   ar
     6    34    23    1
     7    23    24   ar
     8    24    25   ar
     9    25    26   ar
    10    26    22    1
    11    22    21    1
    12    21    20    1
    13    20    19    1
    14    19     1    1
    15     1     2    1
    16     2     3    1
    17     3     4    1
    18     4     5    1
    19     5     7    1
    20     7     8   ar
    21     8     9   ar
    22     9    10   ar
    23    10    11   ar
    24    11    13    1
    25    13    14    1
    26    13    15    1
    27    13    16    1
    28    13    17    1
    29    13    18    1
    30    11    12   ar
    31     5     6    1
    32    26    27   ar
    33    27    28    1
    34    34    30   ar
    35    27    23   ar
    36     6     1    1
    37     5     3    1
    38    12     7   ar
@<TRIPOS>MOLECULE
*****
 34 38 0 0 0
SMALL
GASTEIGER

@<TRIPOS>ATOM
      1 N         142.7291  144.4337  163.6557 N.3     1  UNL1       -0.2724
      2 C         143.9544  144.1095  162.8534 C.3     1  UNL1        0.0724
      3 C         144.5792  142.8778  163.4386 C.3     1  UNL1        0.0214
      4 C         144.9647  141.6606  164.2259 C.3     1  UNL1        0.0072
      5 C         143.7401  142.4406  164.6026 C.3     1  UNL1        0.0350
      6 C         142.5967  143.4022  164.7367 C.3     1  UNL1        0.0761
      7 C         143.3517  141.5723  165.7623 C.ar    1  UNL1       -0.0207
      8 C         143.2030  140.0917  165.5739 C.ar    1  UNL1       -0.0042
      9 C         142.8145  139.2233  166.7337 C.ar    1  UNL1        0.0005
     10 C         142.5748  139.8356  168.0819 C.ar    1  UNL1        0.0149
     11 C         142.7235  141.3163  168.2703 C.ar    1  UNL1        0.1225
     12 C         143.1119  142.1847  167.1105 C.ar    1  UNL1        0.0107
     13 S         142.4838  141.9287  169.6185 S.3     1  UNL1        0.3126
     14 F         142.2162  142.7240  168.3752 F       1  UNL1       -0.0934
     15 F         141.9765  143.3364  169.7234 F       1  UNL1       -0.0934
     16 F         142.7513  141.1333  170.8617 F       1  UNL1       -0.0934
     17 F         142.2440  142.5410  170.9666 F       1  UNL1       -0.0934
     18 F         142.9910  140.5210  169.5136 F       1  UNL1       -0.0934
     19 C         141.7995  145.5867  163.4186 C.3     1  UNL1        0.0730
     20 C         140.6081  145.4177  162.5232 C.3     1  UNL1        0.0294
     21 C         140.7988  145.0374  161.0848 C.3     1  UNL1        0.0666
     22 S         139.9710  143.9407  160.4829 S.3     1  UNL1       -0.0756
     23 C         138.6890  141.1780  162.8889 C.ar    1  UNL1        0.2029
     24 N         137.4169  141.9141  162.5887 N.ar    1  UNL1       -0.1250
     25 N         137.7424  143.0385  161.6509 N.ar    1  UNL1       -0.1220
     26 C         139.2155  142.9974  161.3715 C.ar    1  UNL1        0.1933
     27 N         139.8005  141.8475  162.1366 N.ar    1  UNL1       -0.2860
     28 C         141.2438  141.4390  162.1475 C.3     1  UNL1        0.1341
     29 C         139.6075  141.2209  166.0201 C.3     1  UNL1        0.0556
     30 C         139.2476  140.0019  165.2234 C.ar    1  UNL1        0.1001
     31 N         139.2467  138.5887  165.7262 N.ar    1  UNL1       -0.2085
     32 C         138.8239  137.6956  164.5977 C.ar    1  UNL1        0.2849
     33 O         138.5635  138.5567  163.3976 O.2     1  UNL1       -0.4283
     34 C         138.8254  139.9822  163.7843 C.ar    1  UNL1        0.1964
@<TRIPOS>BOND
     1    29    30    1
     2    30    31   ar
     3    31    32   ar
     4    32    33   ar
     5    33    34   ar
     6    34    23    1
     7    23    24   ar
     8    24    25   ar
     9    25    26   ar
    10    26    22    1
    11    22    21    1
    12    21    20    1
    13    20    19    1
    14    19     1    1
    15     1     2    1
    16     2     3    1
    17     3     4    1
    18     4     5    1
    19     5     7    1
    20     7     8   ar
    21     8     9   ar
    22     9    10   ar
    23    10    11   ar
    24    11    13    1
    25    13    14    1
    26    13    15    1
    27    13    16    1
    28    13    17    1
    29    13    18    1
    30    11    12   ar
    31     5     6    1
    32    26    27   ar
    33    27    28    1
    34    34    30   ar
    35    27    23   ar
    36     6     1    1
    37     5     3    1
    38    12     7   ar
@<TRIPOS>MOLECULE
*****
 34 38 0 0 0
SMALL
GASTEIGER

@<TRIPOS>ATOM
      1 N         144.0459  140.5184  163.1303 N.3     1  UNL1       -0.2724
      2 C         145.0996  141.1601  163.9835 C.3     1  UNL1        0.0724
      3 C         144.6936  142.5829  164.2300 C.3     1  UNL1        0.0214
      4 C         144.0386  143.9304  164.3012 C.3     1  UNL1        0.0072
      5 C         143.3889  142.8206  163.5292 C.3     1  UNL1        0.0350
      6 C         142.9886  141.5447  162.8495 C.3     1  UNL1        0.0761
      7 C         142.1957  143.6148  163.0870 C.ar    1  UNL1       -0.0207
      8 C         142.2104  144.3146  161.7603 C.ar    1  UNL1       -0.0042
      9 C         141.0172  145.1089  161.3181 C.ar    1  UNL1        0.0005
     10 C         139.8094  145.2034  162.2025 C.ar    1  UNL1        0.0149
     11 C         139.7947  144.5035  163.5293 C.ar    1  UNL1        0.1225
     12 C         140.9879  143.7093  163.9715 C.ar    1  UNL1        0.0107
     13 S         138.5869  144.5980  164.4137 S.3     1  UNL1        0.3126
     14 F         139.9387  144.9678  164.9483 F       1  UNL1       -0.0934
     15 F         138.7309  145.0622  165.8328 F       1  UNL1       -0.0934
     16 F         137.2352  144.2281  163.8791 F       1  UNL1       -0.0934
     17 F         137.3792  144.6924  165.2982 F       1  UNL1       -0.0934
     18 F         138.4429  144.1337  162.9947 F       1  UNL1       -0.0934
     19 C         144.0489  139.0997  162.6434 C.3     1  UNL1        0.0730
     20 C         143.0793  138.6684  161.5833 C.3     1  UNL1        0.0294
     21 C         141.6386  138.4396  161.9329 C.3     1  UNL1        0.0666
     22 S         141.2800  137.6820  163.1770 S.3     1  UNL1       -0.0756
     23 C         139.6089  139.4019  166.2289 C.ar    1  UNL1        0.2029
     24 N         138.4191  139.1496  165.3510 N.ar    1  UNL1       -0.1250
     25 N         138.9002  138.4747  164.1009 N.ar    1  UNL1       -0.1220
     26 C         140.3874  138.3098  164.2062 C.ar    1  UNL1        0.1933
     27 N         140.8253  138.8828  165.5214 N.ar    1  UNL1       -0.2860
     28 C         142.2327  138.9287  166.0383 C.3     1  UNL1        0.1341
     29 C         141.0052  142.2486  167.0011 C.3     1  UNL1        0.0556
     30 C         140.2279  141.3664  167.9326 C.ar    1  UNL1        0.1001
     31 N         139.9559  141.6379  169.3825 N.ar    1  UNL1       -0.2085
     32 C         139.1461  140.4972  169.9237 C.ar    1  UNL1        0.2849
     33 O         138.9175  139.5208  168.8083 O.2     1  UNL1       -0.4283
     34 C         139.5861  140.0580  167.5777 C.ar    1  UNL1        0.1964
@<TRIPOS>BOND
     1    29    30    1
     2    30    31   ar
     3    31    32   ar
     4    32    33   ar
     5    33    34   ar
     6    34    23    1
     7    23    24   ar
     8    24    25   ar
     9    25    26   ar
    10    26    22    1
    11    22    21    1
    12    21    20    1
    13    20    19    1
    14    19     1    1
    15     1     2    1
    16     2     3    1
    17     3     4    1
    18     4     5    1
    19     5     7    1
    20     7     8   ar
    21     8     9   ar
    22     9    10   ar
    23    10    11   ar
    24    11    13    1
    25    13    14    1
    26    13    15    1
    27    13    16    1
    28    13    17    1
    29    13    18    1
    30    11    12   ar
    31     5     6    1
    32    26    27   ar
    33    27    28    1
    34    34    30   ar
    35    27    23   ar
    36     6     1    1
    37     5     3    1
    38    12     7   ar
