@<TRIPOS>MOLECULE
*****
 28 31 0 0 0
SMALL
GASTEIGER

@<TRIPOS>ATOM
      1 C         140.9530  141.7626  166.4183 C.ar    1  UNL1        0.0684
      2 C         140.5452  140.3647  166.0584 C.ar    1  UNL1        0.0711
      3 C         139.8662  139.7585  167.2506 C.ar    1  UNL1        0.0235
      4 C         139.8543  140.7817  168.3474 C.ar    1  UNL1        0.0642
      5 C         139.3187  140.7455  169.7480 C.ar    1  UNL1        0.0176
      6 C         139.4547  141.9480  170.6342 C.ar    1  UNL1        0.0030
      7 C         140.1264  143.1867  170.1198 C.ar    1  UNL1        0.0190
      8 C         140.6621  143.2228  168.7192 C.ar    1  UNL1        0.0801
      9 N         140.5260  142.0203  167.8330 N.ar    1  UNL1       -0.3048
     10 C         140.7759  139.6913  164.7380 C.2     1  UNL1        0.2505
     11 O         142.0152  138.8752  164.5188 O.2     1  UNL1       -0.2699
     12 N         139.7673  139.8340  163.6370 N.am    1  UNL1       -0.2752
     13 C         138.5280  140.6501  163.8562 C.3     1  UNL1        0.0937
     14 C         137.5194  140.7928  162.7552 C.3     1  UNL1        0.0216
     15 C         137.7501  140.1194  161.4348 C.3     1  UNL1        0.0035
     16 C         138.9894  139.3033  161.2156 C.3     1  UNL1        0.0224
     17 C         139.9980  139.1606  162.3166 C.3     1  UNL1        0.1048
     18 C         141.2373  138.3445  162.0974 C.3     1  UNL1        0.1568
     19 O         141.2784  136.9106  162.5358 O.3     1  UNL1       -0.3802
     20 H         141.2242  136.8666  163.5033 H       1  UNL1        0.2105
     21 C         141.5851  144.6036  163.7204 C.ar    1  UNL1        0.0685
     22 C         143.0835  144.6724  163.7268 C.ar    1  UNL1        0.0103
     23 C         143.8718  143.7713  164.6304 C.ar    1  UNL1        0.0007
     24 C         143.1616  142.8013  165.5276 C.ar    1  UNL1        0.0015
     25 C         141.6631  142.7325  165.5212 C.ar    1  UNL1        0.0169
     26 C         140.8750  143.6337  164.6175 C.ar    1  UNL1        0.0117
     27 N         140.0086  146.4059  161.9131 N.1     1  UNL1       -0.1908
     28 C         140.7968  145.5048  162.8167 C.1     1  UNL1        0.1004
@<TRIPOS>BOND
     1    27    28    3
     2    28    21    1
     3    21    22   ar
     4    22    23   ar
     5    23    24   ar
     6    24    25   ar
     7    25     1    1
     8     1     2   ar
     9     2    10    1
    10    10    11    2
    11    10    12   am
    12    12    13    1
    13    13    14    1
    14    14    15    1
    15    15    16    1
    16    16    17    1
    17    17    18    1
    18    18    19    1
    19     2     3   ar
    20     3     4   ar
    21     4     5   ar
    22     5     6   ar
    23     6     7   ar
    24     7     8   ar
    25     8     9   ar
    26    25    26   ar
    27    26    21   ar
    28     9     1   ar
    29    17    12    1
    30     9     4   ar
    31    19    20    1
@<TRIPOS>MOLECULE
*****
 28 31 0 0 0
SMALL
GASTEIGER

@<TRIPOS>ATOM
      1 C         142.7736  141.2653  166.6395 C.ar    1  UNL1        0.0684
      2 C         143.0156  139.8348  166.2584 C.ar    1  UNL1        0.0711
      3 C         142.9075  138.9998  167.4999 C.ar    1  UNL1        0.0235
      4 C         142.5988  139.9143  168.6481 C.ar    1  UNL1        0.0642
      5 C         142.3824  139.6529  170.1092 C.ar    1  UNL1        0.0176
      6 C         142.0832  140.7916  171.0385 C.ar    1  UNL1        0.0030
      7 C         142.0005  142.1918  170.5068 C.ar    1  UNL1        0.0190
      8 C         142.2169  142.4531  169.0457 C.ar    1  UNL1        0.0801
      9 N         142.5161  141.3144  168.1164 N.ar    1  UNL1       -0.3048
     10 C         143.3133  139.3282  164.8783 C.2     1  UNL1        0.2505
     11 O         144.7269  139.3023  164.3776 O.2     1  UNL1       -0.2699
     12 N         142.1973  138.8475  163.9989 N.am    1  UNL1       -0.2752
     13 C         140.7835  138.8734  164.4996 C.3     1  UNL1        0.0937
     14 C         139.6675  138.3927  163.6201 C.3     1  UNL1        0.0216
     15 C         139.9652  137.8861  162.2400 C.3     1  UNL1        0.0035
     16 C         141.3789  137.8602  161.7393 C.3     1  UNL1        0.0224
     17 C         142.4949  138.3409  162.6187 C.3     1  UNL1        0.1048
     18 C         143.9086  138.3151  162.1180 C.3     1  UNL1        0.1568
     19 O         144.5172  139.5514  161.5255 O.3     1  UNL1       -0.3802
     20 H         144.0572  139.7752  160.7014 H       1  UNL1        0.2105
     21 C         141.5215  144.0955  164.1551 C.ar    1  UNL1        0.0685
     22 C         142.8136  144.7906  163.8429 C.ar    1  UNL1        0.0103
     23 C         144.0923  144.3106  164.4629 C.ar    1  UNL1        0.0007
     24 C         144.0790  143.1355  165.3951 C.ar    1  UNL1        0.0015
     25 C         142.7869  142.4403  165.7073 C.ar    1  UNL1        0.0169
     26 C         141.5083  142.9204  165.0873 C.ar    1  UNL1        0.0117
     27 N         138.9640  145.0555  162.9151 N.1     1  UNL1       -0.1908
     28 C         140.2428  144.5755  163.5351 C.1     1  UNL1        0.1004
@<TRIPOS>BOND
     1    27    28    3
     2    28    21    1
     3    21    22   ar
     4    22    23   ar
     5    23    24   ar
     6    24    25   ar
     7    25     1    1
     8     1     2   ar
     9     2    10    1
    10    10    11    2
    11    10    12   am
    12    12    13    1
    13    13    14    1
    14    14    15    1
    15    15    16    1
    16    16    17    1
    17    17    18    1
    18    18    19    1
    19     2     3   ar
    20     3     4   ar
    21     4     5   ar
    22     5     6   ar
    23     6     7   ar
    24     7     8   ar
    25     8     9   ar
    26    25    26   ar
    27    26    21   ar
    28     9     1   ar
    29    17    12    1
    30     9     4   ar
    31    19    20    1
@<TRIPOS>MOLECULE
*****
 28 31 0 0 0
SMALL
GASTEIGER

@<TRIPOS>ATOM
      1 C         141.7064  140.3908  166.8321 C.ar    1  UNL1        0.0684
      2 C         140.3673  139.7443  166.6351 C.ar    1  UNL1        0.0711
      3 C         139.5978  139.8727  167.9162 C.ar    1  UNL1        0.0235
      4 C         140.4613  140.5985  168.9049 C.ar    1  UNL1        0.0642
      5 C         140.2292  141.0091  170.3288 C.ar    1  UNL1        0.0176
      6 C         141.3004  141.7400  171.0826 C.ar    1  UNL1        0.0030
      7 C         142.6037  142.0602  170.4126 C.ar    1  UNL1        0.0190
      8 C         142.8357  141.6496  168.9887 C.ar    1  UNL1        0.0801
      9 N         141.7645  140.9187  168.2349 N.ar    1  UNL1       -0.3048
     10 C         139.8828  139.0852  165.3777 C.2     1  UNL1        0.2505
     11 O         140.2360  137.6548  165.0967 O.2     1  UNL1       -0.2699
     12 N         139.0451  139.8566  164.4015 N.am    1  UNL1       -0.2752
     13 C         138.6918  141.2871  164.6825 C.3     1  UNL1        0.0937
     14 C         137.8541  142.0585  163.7062 C.3     1  UNL1        0.0216
     15 C         137.3696  141.3994  162.4488 C.3     1  UNL1        0.0035
     16 C         137.7228  139.9689  162.1678 C.3     1  UNL1        0.0224
     17 C         138.5606  139.1975  163.1441 C.3     1  UNL1        0.1048
     18 C         138.9138  137.7671  162.8631 C.3     1  UNL1        0.1568
     19 O         140.1675  137.4385  162.1080 O.3     1  UNL1       -0.3802
     20 H         140.0935  137.7690  161.1990 H       1  UNL1        0.2105
     21 C         144.0664  141.8607  164.0001 C.ar    1  UNL1        0.0685
     22 C         144.9758  140.6933  163.7547 C.ar    1  UNL1        0.0103
     23 C         144.7955  139.4251  164.5351 C.ar    1  UNL1        0.0007
     24 C         143.7057  139.3242  165.5609 C.ar    1  UNL1        0.0015
     25 C         142.7962  140.4917  165.8063 C.ar    1  UNL1        0.0169
     26 C         142.9766  141.7598  165.0259 C.ar    1  UNL1        0.0117
     27 N         144.4271  144.3971  162.4392 N.1     1  UNL1       -0.1908
     28 C         144.2467  143.1289  163.2197 C.1     1  UNL1        0.1004
@<TRIPOS>BOND
     1    27    28    3
     2    28    21    1
     3    21    22   ar
     4    22    23   ar
     5    23    24   ar
     6    24    25   ar
     7    25     1    1
     8     1     2   ar
     9     2    10    1
    10    10    11    2
    11    10    12   am
    12    12    13    1
    13    13    14    1
    14    14    15    1
    15    15    16    1
    16    16    17    1
    17    17    18    1
    18    18    19    1
    19     2     3   ar
    20     3     4   ar
    21     4     5   ar
    22     5     6   ar
    23     6     7   ar
    24     7     8   ar
    25     8     9   ar
    26    25    26   ar
    27    26    21   ar
    28     9     1   ar
    29    17    12    1
    30     9     4   ar
    31    19    20    1
@<TRIPOS>MOLECULE
*****
 28 31 0 0 0
SMALL
GASTEIGER

@<TRIPOS>ATOM
      1 C         142.0137  140.8841  164.9543 C.ar    1  UNL1        0.0684
      2 C         142.6983  141.2433  166.2397 C.ar    1  UNL1        0.0711
      3 C         143.5893  142.4210  165.9768 C.ar    1  UNL1        0.0235
      4 C         143.4553  142.7896  164.5290 C.ar    1  UNL1        0.0642
      5 C         144.0943  143.8675  163.7044 C.ar    1  UNL1        0.0176
      6 C         143.7594  143.9954  162.2479 C.ar    1  UNL1        0.0030
      7 C         142.7855  143.0455  161.6160 C.ar    1  UNL1        0.0190
      8 C         142.1466  141.9677  162.4406 C.ar    1  UNL1        0.0801
      9 N         142.4815  141.8397  163.8971 N.ar    1  UNL1       -0.3048
     10 C         142.5228  140.5471  167.5567 C.2     1  UNL1        0.2505
     11 O         143.1474  139.2023  167.7833 O.2     1  UNL1       -0.2699
     12 N         141.7227  141.1957  168.6472 N.am    1  UNL1       -0.2752
     13 C         141.0980  142.5406  168.4206 C.3     1  UNL1        0.0937
     14 C         140.2979  143.1892  169.5111 C.3     1  UNL1        0.0216
     15 C         140.1224  142.4930  170.8281 C.3     1  UNL1        0.0035
     16 C         140.7470  141.1482  171.0546 C.3     1  UNL1        0.0224
     17 C         141.5472  140.4995  169.9642 C.3     1  UNL1        0.1048
     18 C         142.1717  139.1547  170.1907 C.3     1  UNL1        0.1568
     19 O         143.4987  139.0510  170.8823 O.3     1  UNL1       -0.3802
     20 H         144.1842  139.4572  170.3291 H       1  UNL1        0.2105
     21 C         138.9801  138.4045  165.5862 C.ar    1  UNL1        0.0685
     22 C         139.0724  137.5284  164.3721 C.ar    1  UNL1        0.0103
     23 C         140.1451  137.7709  163.3521 C.ar    1  UNL1        0.0007
     24 C         141.1256  138.8894  163.5461 C.ar    1  UNL1        0.0015
     25 C         141.0332  139.7655  164.7603 C.ar    1  UNL1        0.0169
     26 C         139.9605  139.5230  165.7802 C.ar    1  UNL1        0.0117
     27 N         136.8347  137.9195  167.6262 N.1     1  UNL1       -0.1908
     28 C         137.9074  138.1620  166.6062 C.1     1  UNL1        0.1004
@<TRIPOS>BOND
     1    27    28    3
     2    28    21    1
     3    21    22   ar
     4    22    23   ar
     5    23    24   ar
     6    24    25   ar
     7    25     1    1
     8     1     2   ar
     9     2    10    1
    10    10    11    2
    11    10    12   am
    12    12    13    1
    13    13    14    1
    14    14    15    1
    15    15    16    1
    16    16    17    1
    17    17    18    1
    18    18    19    1
    19     2     3   ar
    20     3     4   ar
    21     4     5   ar
    22     5     6   ar
    23     6     7   ar
    24     7     8   ar
    25     8     9   ar
    26    25    26   ar
    27    26    21   ar
    28     9     1   ar
    29    17    12    1
    30     9     4   ar
    31    19    20    1
@<TRIPOS>MOLECULE
*****
 28 31 0 0 0
SMALL
GASTEIGER

@<TRIPOS>ATOM
      1 C         140.0190  141.7901  166.3917 C.ar    1  UNL1        0.0684
      2 C         139.6708  140.3647  166.0801 C.ar    1  UNL1        0.0711
      3 C         139.5861  139.6144  167.3761 C.ar    1  UNL1        0.0235
      4 C         139.8820  140.5759  168.4887 C.ar    1  UNL1        0.0642
      5 C         139.9423  140.4008  169.9772 C.ar    1  UNL1        0.0176
      6 C         140.2702  141.5704  170.8572 C.ar    1  UNL1        0.0030
      7 C         140.5378  142.9151  170.2488 C.ar    1  UNL1        0.0190
      8 C         140.4774  143.0902  168.7603 C.ar    1  UNL1        0.0801
      9 N         140.1495  141.9206  167.8803 N.ar    1  UNL1       -0.3048
     10 C         139.4466  139.7905  164.7126 C.2     1  UNL1        0.2505
     11 O         138.0677  139.7746  164.1226 O.2     1  UNL1       -0.2699
     12 N         140.6015  139.2323  163.9350 N.am    1  UNL1       -0.2752
     13 C         141.9806  139.2481  164.5249 C.3     1  UNL1        0.0937
     14 C         143.1354  138.6898  163.7474 C.3     1  UNL1        0.0216
     15 C         142.9112  138.1157  162.3799 C.3     1  UNL1        0.0035
     16 C         141.5322  138.0998  161.7899 C.3     1  UNL1        0.0224
     17 C         140.3773  138.6581  162.5675 C.3     1  UNL1        0.1048
     18 C         138.9983  138.6422  161.9775 C.3     1  UNL1        0.1568
     19 O         138.0972  137.4655  162.2086 O.3     1  UNL1       -0.3802
     20 H         138.4693  136.6829  161.7727 H       1  UNL1        0.2105
     21 C         141.7215  144.1897  163.7283 C.ar    1  UNL1        0.0685
     22 C         140.5746  145.0945  163.3879 C.ar    1  UNL1        0.0103
     23 C         139.2424  144.8978  164.0488 C.ar    1  UNL1        0.0007
     24 C         139.0572  143.7964  165.0500 C.ar    1  UNL1        0.0015
     25 C         140.2042  142.8915  165.3904 C.ar    1  UNL1        0.0169
     26 C         141.5363  143.0883  164.7296 C.ar    1  UNL1        0.0117
     27 N         144.3858  144.5831  162.4067 N.1     1  UNL1       -0.1908
     28 C         143.0536  144.3864  163.0675 C.1     1  UNL1        0.1004
@<TRIPOS>BOND
     1    27    28    3
     2    28    21    1
     3    21    22   ar
     4    22    23   ar
     5    23    24   ar
     6    24    25   ar
     7    25     1    1
     8     1     2   ar
     9     2    10    1
    10    10    11    2
    11    10    12   am
    12    12    13    1
    13    13    14    1
    14    14    15    1
    15    15    16    1
    16    16    17    1
    17    17    18    1
    18    18    19    1
    19     2     3   ar
    20     3     4   ar
    21     4     5   ar
    22     5     6   ar
    23     6     7   ar
    24     7     8   ar
    25     8     9   ar
    26    25    26   ar
    27    26    21   ar
    28     9     1   ar
    29    17    12    1
    30     9     4   ar
    31    19    20    1
@<TRIPOS>MOLECULE
*****
 28 31 0 0 0
SMALL
GASTEIGER

@<TRIPOS>ATOM
      1 C         141.1439  142.3444  166.1273 C.ar    1  UNL1        0.0684
      2 C         142.3852  141.5806  165.7725 C.ar    1  UNL1        0.0711
      3 C         143.2270  141.4643  167.0085 C.ar    1  UNL1        0.0235
      4 C         142.5061  142.1562  168.1272 C.ar    1  UNL1        0.0642
      5 C         142.8557  142.3611  169.5714 C.ar    1  UNL1        0.0176
      6 C         141.9177  143.1100  170.4711 C.ar    1  UNL1        0.0030
      7 C         140.6302  143.6539  169.9265 C.ar    1  UNL1        0.0190
      8 C         140.2807  143.4490  168.4823 C.ar    1  UNL1        0.0801
      9 N         141.2186  142.7001  167.5827 N.ar    1  UNL1       -0.3048
     10 C         142.7249  141.0299  164.4192 C.2     1  UNL1        0.2505
     11 O         143.6161  141.8063  163.4957 O.2     1  UNL1       -0.2699
     12 N         142.1734  139.7029  163.9895 N.am    1  UNL1       -0.2752
     13 C         141.2821  138.9264  164.9130 C.3     1  UNL1        0.0937
     14 C         140.7306  137.5994  164.4833 C.3     1  UNL1        0.0216
     15 C         141.0704  137.0487  163.1301 C.3     1  UNL1        0.0035
     16 C         141.9616  137.8250  162.2065 C.3     1  UNL1        0.0224
     17 C         142.5131  139.1521  162.6362 C.3     1  UNL1        0.1048
     18 C         143.4043  139.9285  161.7127 C.3     1  UNL1        0.1568
     19 O         144.8947  139.8335  161.8529 O.3     1  UNL1       -0.3802
     20 H         145.1649  140.2188  162.7011 H       1  UNL1        0.2105
     21 C         139.0499  144.1925  163.3078 C.ar    1  UNL1        0.0685
     22 C         137.7853  143.3857  163.3191 C.ar    1  UNL1        0.0103
     23 C         137.6403  142.2319  164.2665 C.ar    1  UNL1        0.0007
     24 C         138.7598  141.8847  165.2026 C.ar    1  UNL1        0.0015
     25 C         140.0244  142.6915  165.1913 C.ar    1  UNL1        0.0169
     26 C         140.1694  143.8453  164.2439 C.ar    1  UNL1        0.0117
     27 N         139.3399  146.5002  161.4131 N.1     1  UNL1       -0.1908
     28 C         139.1949  145.3463  162.3604 C.1     1  UNL1        0.1004
@<TRIPOS>BOND
     1    27    28    3
     2    28    21    1
     3    21    22   ar
     4    22    23   ar
     5    23    24   ar
     6    24    25   ar
     7    25     1    1
     8     1     2   ar
     9     2    10    1
    10    10    11    2
    11    10    12   am
    12    12    13    1
    13    13    14    1
    14    14    15    1
    15    15    16    1
    16    16    17    1
    17    17    18    1
    18    18    19    1
    19     2     3   ar
    20     3     4   ar
    21     4     5   ar
    22     5     6   ar
    23     6     7   ar
    24     7     8   ar
    25     8     9   ar
    26    25    26   ar
    27    26    21   ar
    28     9     1   ar
    29    17    12    1
    30     9     4   ar
    31    19    20    1
@<TRIPOS>MOLECULE
*****
 28 31 0 0 0
SMALL
GASTEIGER

@<TRIPOS>ATOM
      1 C         142.0082  142.2670  165.9410 C.ar    1  UNL1        0.0684
      2 C         140.5879  142.5667  165.5629 C.ar    1  UNL1        0.0711
      3 C         139.8358  142.9032  166.8163 C.ar    1  UNL1        0.0235
      4 C         140.7912  142.8116  167.9690 C.ar    1  UNL1        0.0642
      5 C         140.6121  143.0355  169.4413 C.ar    1  UNL1        0.0176
      6 C         141.7756  142.8661  170.3726 C.ar    1  UNL1        0.0030
      7 C         143.1183  142.4729  169.8317 C.ar    1  UNL1        0.0190
      8 C         143.2974  142.2491  168.3593 C.ar    1  UNL1        0.0801
      9 N         142.1339  142.4184  167.4280 N.ar    1  UNL1       -0.3048
     10 C         140.0195  142.5352  164.1751 C.2     1  UNL1        0.2505
     11 O         140.0481  143.7705  163.3247 O.2     1  UNL1       -0.2699
     12 N         139.4225  141.2685  163.6376 N.am    1  UNL1       -0.2752
     13 C         139.3939  140.0331  164.4880 C.3     1  UNL1        0.0937
     14 C         138.7969  138.7663  163.9505 C.3     1  UNL1        0.0216
     15 C         138.2286  138.7349  162.5627 C.3     1  UNL1        0.0035
     16 C         138.2572  139.9702  161.7124 C.3     1  UNL1        0.0224
     17 C         138.8542  141.2370  162.2498 C.3     1  UNL1        0.1048
     18 C         138.8828  142.4723  161.3995 C.3     1  UNL1        0.1568
     19 O         137.7875  143.4903  161.5185 O.3     1  UNL1       -0.3802
     20 H         136.9518  143.1032  161.2142 H       1  UNL1        0.2105
     21 C         144.0882  140.2565  163.2241 C.ar    1  UNL1        0.0685
     22 C         145.3122  141.1161  163.1110 C.ar    1  UNL1        0.0103
     23 C         145.4349  142.3593  163.9411 C.ar    1  UNL1        0.0007
     24 C         144.3336  142.7430  164.8845 C.ar    1  UNL1        0.0015
     25 C         143.1095  141.8833  164.9976 C.ar    1  UNL1        0.0169
     26 C         142.9869  140.6401  164.1675 C.ar    1  UNL1        0.0117
     27 N         143.8428  137.7699  161.5638 N.1     1  UNL1       -0.1908
     28 C         143.9655  139.0132  162.3940 C.1     1  UNL1        0.1004
@<TRIPOS>BOND
     1    27    28    3
     2    28    21    1
     3    21    22   ar
     4    22    23   ar
     5    23    24   ar
     6    24    25   ar
     7    25     1    1
     8     1     2   ar
     9     2    10    1
    10    10    11    2
    11    10    12   am
    12    12    13    1
    13    13    14    1
    14    14    15    1
    15    15    16    1
    16    16    17    1
    17    17    18    1
    18    18    19    1
    19     2     3   ar
    20     3     4   ar
    21     4     5   ar
    22     5     6   ar
    23     6     7   ar
    24     7     8   ar
    25     8     9   ar
    26    25    26   ar
    27    26    21   ar
    28     9     1   ar
    29    17    12    1
    30     9     4   ar
    31    19    20    1
@<TRIPOS>MOLECULE
*****
 28 31 0 0 0
SMALL
GASTEIGER

@<TRIPOS>ATOM
      1 C         141.2716  142.4979  166.6356 C.ar    1  UNL1        0.0684
      2 C         142.7186  142.6145  166.2580 C.ar    1  UNL1        0.0711
      3 C         143.5381  142.4336  167.5012 C.ar    1  UNL1        0.0235
      4 C         142.5976  142.2051  168.6472 C.ar    1  UNL1        0.0642
      5 C         142.8357  141.9661  170.1087 C.ar    1  UNL1        0.0176
      6 C         141.6731  141.7667  171.0353 C.ar    1  UNL1        0.0030
      7 C         140.2723  141.8064  170.5003 C.ar    1  UNL1        0.0190
      8 C         140.0341  142.0455  169.0387 C.ar    1  UNL1        0.0801
      9 N         141.1968  142.2448  168.1122 N.ar    1  UNL1       -0.3048
     10 C         143.2524  142.8677  164.8792 C.2     1  UNL1        0.2505
     11 O         143.5003  144.2730  164.4173 O.2     1  UNL1       -0.2699
     12 N         143.5382  141.7154  163.9624 N.am    1  UNL1       -0.2752
     13 C         143.2902  140.3100  164.4243 C.3     1  UNL1        0.0937
     14 C         143.5761  139.1578  163.5075 C.3     1  UNL1        0.0216
     15 C         144.1098  139.4109  162.1287 C.3     1  UNL1        0.0035
     16 C         144.3578  140.8162  161.6668 C.3     1  UNL1        0.0224
     17 C         144.0720  141.9686  162.5836 C.3     1  UNL1        0.1048
     18 C         144.3199  143.3739  162.1217 C.3     1  UNL1        0.1568
     19 O         143.2131  144.1600  161.4835 O.3     1  UNL1       -0.3802
     20 H         142.9724  143.7511  160.6375 H       1  UNL1        0.2105
     21 C         138.5419  141.5625  163.9110 C.ar    1  UNL1        0.0685
     22 C         137.7696  142.8459  163.8310 C.ar    1  UNL1        0.0103
     23 C         138.1647  144.0134  164.6860 C.ar    1  UNL1        0.0007
     24 C         139.3320  143.8974  165.6208 C.ar    1  UNL1        0.0015
     25 C         140.1043  142.6139  165.7007 C.ar    1  UNL1        0.0169
     26 C         139.7092  141.4465  164.8458 C.ar    1  UNL1        0.0117
     27 N         137.7517  139.2275  162.2011 N.1     1  UNL1       -0.1908
     28 C         138.1468  140.3950  163.0561 C.1     1  UNL1        0.1004
@<TRIPOS>BOND
     1    27    28    3
     2    28    21    1
     3    21    22   ar
     4    22    23   ar
     5    23    24   ar
     6    24    25   ar
     7    25     1    1
     8     1     2   ar
     9     2    10    1
    10    10    11    2
    11    10    12   am
    12    12    13    1
    13    13    14    1
    14    14    15    1
    15    15    16    1
    16    16    17    1
    17    17    18    1
    18    18    19    1
    19     2     3   ar
    20     3     4   ar
    21     4     5   ar
    22     5     6   ar
    23     6     7   ar
    24     7     8   ar
    25     8     9   ar
    26    25    26   ar
    27    26    21   ar
    28     9     1   ar
    29    17    12    1
    30     9     4   ar
    31    19    20    1
@<TRIPOS>MOLECULE
*****
 28 31 0 0 0
SMALL
GASTEIGER

@<TRIPOS>ATOM
      1 C         140.7113  140.7369  166.4907 C.ar    1  UNL1        0.0684
      2 C         140.1629  142.1045  166.2102 C.ar    1  UNL1        0.0711
      3 C         140.3529  142.9414  167.4404 C.ar    1  UNL1        0.0235
      4 C         141.0188  142.0911  168.4813 C.ar    1  UNL1        0.0642
      5 C         141.4521  142.3813  169.8876 C.ar    1  UNL1        0.0176
      6 C         142.1069  141.3091  170.7071 C.ar    1  UNL1        0.0030
      7 C         142.3285  139.9466  170.1202 C.ar    1  UNL1        0.0190
      8 C         141.8952  139.6563  168.7138 C.ar    1  UNL1        0.0801
      9 N         141.2404  140.7285  167.8943 N.ar    1  UNL1       -0.3048
     10 C         139.5346  142.5560  164.9251 C.2     1  UNL1        0.2505
     11 O         138.0576  142.3987  164.7165 O.2     1  UNL1       -0.2699
     12 N         140.3835  143.1647  163.8485 N.am    1  UNL1       -0.2752
     13 C         141.8606  143.3219  164.0571 C.3     1  UNL1        0.0937
     14 C         142.7094  143.9306  162.9806 C.3     1  UNL1        0.0216
     15 C         142.0812  144.3821  161.6955 C.3     1  UNL1        0.0035
     16 C         140.6042  144.2248  161.4869 C.3     1  UNL1        0.0224
     17 C         139.7552  143.6161  162.5634 C.3     1  UNL1        0.1048
     18 C         138.2782  143.4589  162.3548 C.3     1  UNL1        0.1568
     19 O         137.3500  144.5915  162.6800 O.3     1  UNL1       -0.3802
     20 H         137.3624  144.7553  163.6360 H       1  UNL1        0.2105
     21 C         141.8621  138.2857  163.5895 C.ar    1  UNL1        0.0685
     22 C         140.7610  137.2678  163.6248 C.ar    1  UNL1        0.0103
     23 C         139.6432  137.4062  164.6155 C.ar    1  UNL1        0.0007
     24 C         139.6267  138.5626  165.5708 C.ar    1  UNL1        0.0015
     25 C         140.7279  139.5805  165.5354 C.ar    1  UNL1        0.0169
     26 C         141.8456  139.4420  164.5448 C.ar    1  UNL1        0.0117
     27 N         144.0976  138.0088  161.6081 N.1     1  UNL1       -0.1908
     28 C         142.9799  138.1473  162.5988 C.1     1  UNL1        0.1004
@<TRIPOS>BOND
     1    27    28    3
     2    28    21    1
     3    21    22   ar
     4    22    23   ar
     5    23    24   ar
     6    24    25   ar
     7    25     1    1
     8     1     2   ar
     9     2    10    1
    10    10    11    2
    11    10    12   am
    12    12    13    1
    13    13    14    1
    14    14    15    1
    15    15    16    1
    16    16    17    1
    17    17    18    1
    18    18    19    1
    19     2     3   ar
    20     3     4   ar
    21     4     5   ar
    22     5     6   ar
    23     6     7   ar
    24     7     8   ar
    25     8     9   ar
    26    25    26   ar
    27    26    21   ar
    28     9     1   ar
    29    17    12    1
    30     9     4   ar
    31    19    20    1
