@<TRIPOS>MOLECULE
*****
 27 29 0 0 0
SMALL
GASTEIGER

@<TRIPOS>ATOM
      1 C         142.3844  142.2320  166.7995 C.ar    1  UNL1        0.0183
      2 C         141.1461  142.3508  165.9612 C.ar    1  UNL1        0.0017
      3 C         141.2335  142.8982  164.5675 C.ar    1  UNL1        0.0046
      4 C         142.5593  143.3270  164.0119 C.ar    1  UNL1        0.0537
      5 C         143.7976  143.2083  164.8501 C.ar    1  UNL1        0.0046
      6 C         143.7101  142.6608  166.2439 C.ar    1  UNL1        0.0017
      7 C         142.5199  140.2219  168.4399 C.ar    1  UNL1        0.0861
      8 C         142.4324  139.6745  169.8337 C.ar    1  UNL1        0.0134
      9 C         142.1218  140.5897  170.9808 C.ar    1  UNL1        0.0214
     10 C         141.8988  142.0523  170.7342 C.ar    1  UNL1        0.0989
     11 N         141.9863  142.5998  169.3404 N.ar    1  UNL1       -0.2432
     12 C         142.2969  141.6845  168.1933 C.ar    1  UNL1        0.0909
     13 N         143.1410  138.3914  166.1456 N.1     1  UNL1       -0.1908
     14 C         142.8304  139.3067  167.2928 C.1     1  UNL1        0.1019
     15 C         142.6468  143.8744  162.6181 C.2     1  UNL1        0.2495
     16 O         143.7850  144.7732  162.2355 O.2     1  UNL1       -0.2698
     17 N         141.5959  143.5231  161.6070 N.am    1  UNL1       -0.2794
     18 H         140.8488  142.9332  161.8582 H       1  UNL1        0.1552
     19 C         141.6834  144.0706  160.2133 C.ar    1  UNL1        0.0636
     20 C         142.6678  143.4920  159.2406 C.ar    1  UNL1        0.0159
     21 C         142.7552  144.0395  157.8468 C.ar    1  UNL1        0.0014
     22 C         141.8582  145.1655  157.4257 C.ar    1  UNL1        0.0013
     23 C         140.8738  145.7441  158.3984 C.ar    1  UNL1        0.0153
     24 C         140.7864  145.1967  159.7921 C.ar    1  UNL1        0.0552
     25 N         139.8019  145.7753  160.7648 N.pl3   1  UNL1       -0.3560
     26 H         139.2132  146.5144  160.4884 H       1  UNL1        0.1424
     27 H         139.7445  145.4160  161.6796 H       1  UNL1        0.1424
@<TRIPOS>BOND
     1    13    14    3
     2    14     7    1
     3     7     8   ar
     4     8     9   ar
     5     9    10   ar
     6    10    11   ar
     7    11    12   ar
     8    12     1    1
     9     1     2   ar
    10     2     3   ar
    11     3     4   ar
    12     4    15    1
    13    15    16    2
    14    15    17   am
    15    17    19    1
    16    19    20   ar
    17    20    21   ar
    18    21    22   ar
    19    22    23   ar
    20    23    24   ar
    21    24    25    1
    22     4     5   ar
    23     5     6   ar
    24    12     7   ar
    25     6     1   ar
    26    24    19   ar
    27    17    18    1
    28    25    26    1
    29    25    27    1
@<TRIPOS>MOLECULE
*****
 27 29 0 0 0
SMALL
GASTEIGER

@<TRIPOS>ATOM
      1 C         141.4330  142.3794  166.9251 C.ar    1  UNL1        0.0183
      2 C         142.7783  142.1659  166.2968 C.ar    1  UNL1        0.0017
      3 C         143.0486  142.6750  164.9120 C.ar    1  UNL1        0.0046
      4 C         141.9737  143.3977  164.1554 C.ar    1  UNL1        0.0537
      5 C         140.6284  143.6112  164.7837 C.ar    1  UNL1        0.0046
      6 C         140.3581  143.1020  166.1685 C.ar    1  UNL1        0.0017
      7 C         140.3156  140.6482  168.5077 C.ar    1  UNL1        0.0861
      8 C         140.0454  140.1391  169.8925 C.ar    1  UNL1        0.0134
      9 C         140.6222  140.8520  171.0795 C.ar    1  UNL1        0.0214
     10 C         141.4692  142.0740  170.8818 C.ar    1  UNL1        0.0989
     11 N         141.7395  142.5831  169.4970 N.ar    1  UNL1       -0.2432
     12 C         141.1627  141.8702  168.3099 C.ar    1  UNL1        0.0909
     13 N         139.1621  139.2224  166.1336 N.1     1  UNL1       -0.1908
     14 C         139.7388  139.9353  167.3206 C.1     1  UNL1        0.1019
     15 C         142.2440  143.9068  162.7706 C.2     1  UNL1        0.2495
     16 O         143.3868  144.8474  162.5272 O.2     1  UNL1       -0.2698
     17 N         141.3716  143.4753  161.6293 N.am    1  UNL1       -0.2794
     18 H         140.6216  142.8579  161.7891 H       1  UNL1        0.1552
     19 C         141.6420  143.9844  160.2445 C.ar    1  UNL1        0.0636
     20 C         142.7024  143.3396  159.4021 C.ar    1  UNL1        0.0159
     21 C         142.9728  143.8488  158.0172 C.ar    1  UNL1        0.0014
     22 C         142.1826  145.0027  157.4749 C.ar    1  UNL1        0.0013
     23 C         141.1222  145.6475  158.3173 C.ar    1  UNL1        0.0153
     24 C         140.8518  145.1383  159.7021 C.ar    1  UNL1        0.0552
     25 N         139.7913  145.7831  160.5445 N.pl3   1  UNL1       -0.3560
     26 H         139.2728  146.5405  160.1885 H       1  UNL1        0.1424
     27 H         139.6139  145.4489  161.4534 H       1  UNL1        0.1424
@<TRIPOS>BOND
     1    13    14    3
     2    14     7    1
     3     7     8   ar
     4     8     9   ar
     5     9    10   ar
     6    10    11   ar
     7    11    12   ar
     8    12     1    1
     9     1     2   ar
    10     2     3   ar
    11     3     4   ar
    12     4    15    1
    13    15    16    2
    14    15    17   am
    15    17    19    1
    16    19    20   ar
    17    20    21   ar
    18    21    22   ar
    19    22    23   ar
    20    23    24   ar
    21    24    25    1
    22     4     5   ar
    23     5     6   ar
    24    12     7   ar
    25     6     1   ar
    26    24    19   ar
    27    17    18    1
    28    25    26    1
    29    25    27    1
@<TRIPOS>MOLECULE
*****
 27 29 0 0 0
SMALL
GASTEIGER

@<TRIPOS>ATOM
      1 C         142.3948  142.2239  166.7978 C.ar    1  UNL1        0.0183
      2 C         141.1709  142.2773  165.9322 C.ar    1  UNL1        0.0017
      3 C         141.2623  142.8197  164.5367 C.ar    1  UNL1        0.0046
      4 C         142.5777  143.3086  164.0067 C.ar    1  UNL1        0.0537
      5 C         143.8016  143.2552  164.8723 C.ar    1  UNL1        0.0046
      6 C         143.7101  142.7128  166.2679 C.ar    1  UNL1        0.0017
      7 C         142.5294  140.2204  168.4465 C.ar    1  UNL1        0.0861
      8 C         142.4379  139.6781  169.8420 C.ar    1  UNL1        0.0134
      9 C         142.1204  140.5968  170.9844 C.ar    1  UNL1        0.0214
     10 C         141.8943  142.0579  170.7313 C.ar    1  UNL1        0.0989
     11 N         141.9858  142.6002  169.3358 N.ar    1  UNL1       -0.2432
     12 C         142.3034  141.6815  168.1934 C.ar    1  UNL1        0.0909
     13 N         143.1644  138.3829  166.1617 N.1     1  UNL1       -0.1908
     14 C         142.8469  139.3016  167.3041 C.1     1  UNL1        0.1019
     15 C         142.6691  143.8510  162.6112 C.2     1  UNL1        0.2495
     16 O         143.8545  144.6744  162.2028 O.2     1  UNL1       -0.2698
     17 N         141.5752  143.5699  161.6242 N.am    1  UNL1       -0.2794
     18 H         140.7972  143.0294  161.8922 H       1  UNL1        0.1552
     19 C         141.6666  144.1122  160.2287 C.ar    1  UNL1        0.0636
     20 C         140.7472  145.2133  159.7902 C.ar    1  UNL1        0.0159
     21 C         140.8387  145.7557  158.3946 C.ar    1  UNL1        0.0014
     22 C         141.8495  145.1969  157.4376 C.ar    1  UNL1        0.0013
     23 C         142.7689  144.0959  157.8761 C.ar    1  UNL1        0.0153
     24 C         142.6775  143.5535  159.2716 C.ar    1  UNL1        0.0552
     25 N         143.5969  142.4524  159.7100 N.pl3   1  UNL1       -0.3560
     26 H         144.2604  142.0857  159.0819 H       1  UNL1        0.1424
     27 H         143.5369  142.0964  160.6260 H       1  UNL1        0.1424
@<TRIPOS>BOND
     1    13    14    3
     2    14     7    1
     3     7     8   ar
     4     8     9   ar
     5     9    10   ar
     6    10    11   ar
     7    11    12   ar
     8    12     1    1
     9     1     2   ar
    10     2     3   ar
    11     3     4   ar
    12     4    15    1
    13    15    16    2
    14    15    17   am
    15    17    19    1
    16    19    20   ar
    17    20    21   ar
    18    21    22   ar
    19    22    23   ar
    20    23    24   ar
    21    24    25    1
    22     4     5   ar
    23     5     6   ar
    24    12     7   ar
    25     6     1   ar
    26    24    19   ar
    27    17    18    1
    28    25    26    1
    29    25    27    1
@<TRIPOS>MOLECULE
*****
 27 29 0 0 0
SMALL
GASTEIGER

@<TRIPOS>ATOM
      1 C         142.1764  143.5902  161.8719 C.ar    1  UNL1        0.0183
      2 C         143.0330  144.3191  162.8643 C.ar    1  UNL1        0.0017
      3 C         143.0219  143.9104  164.3075 C.ar    1  UNL1        0.0046
      4 C         142.1541  142.7729  164.7583 C.ar    1  UNL1        0.0537
      5 C         141.2975  142.0441  163.7658 C.ar    1  UNL1        0.0046
      6 C         141.3087  142.4528  162.3226 C.ar    1  UNL1        0.0017
      7 C         141.2048  145.0163  159.9296 C.ar    1  UNL1        0.0861
      8 C         141.2160  145.4249  158.4864 C.ar    1  UNL1        0.0134
      9 C         142.2100  144.8162  157.5422 C.ar    1  UNL1        0.0214
     10 C         143.1928  143.7988  158.0412 C.ar    1  UNL1        0.0989
     11 N         143.1816  143.3902  159.4844 N.ar    1  UNL1       -0.2432
     12 C         142.1876  143.9989  160.4286 C.ar    1  UNL1        0.0909
     13 N         139.2169  146.2337  161.8179 N.1     1  UNL1       -0.1908
     14 C         140.2108  145.6250  160.8737 C.1     1  UNL1        0.1019
     15 C         142.1430  142.3643  166.2015 C.2     1  UNL1        0.2495
     16 O         143.3910  142.4849  167.0248 O.2     1  UNL1       -0.2698
     17 N         140.8838  141.8351  166.8215 N.am    1  UNL1       -0.2794
     18 H         140.0646  141.7559  166.2811 H       1  UNL1        0.1552
     19 C         140.8726  141.4265  168.2647 C.ar    1  UNL1        0.0636
     20 C         141.2437  140.0252  168.6503 C.ar    1  UNL1        0.0159
     21 C         141.2326  139.6166  170.0936 C.ar    1  UNL1        0.0014
     22 C         140.8503  140.6093  171.1511 C.ar    1  UNL1        0.0013
     23 C         140.4792  142.0105  170.7655 C.ar    1  UNL1        0.0153
     24 C         140.4904  142.4191  169.3223 C.ar    1  UNL1        0.0552
     25 N         140.1193  143.8204  168.9367 N.pl3   1  UNL1       -0.3560
     26 H         139.8684  144.4719  169.6308 H       1  UNL1        0.1424
     27 H         140.1266  144.0886  167.9894 H       1  UNL1        0.1424
@<TRIPOS>BOND
     1    13    14    3
     2    14     7    1
     3     7     8   ar
     4     8     9   ar
     5     9    10   ar
     6    10    11   ar
     7    11    12   ar
     8    12     1    1
     9     1     2   ar
    10     2     3   ar
    11     3     4   ar
    12     4    15    1
    13    15    16    2
    14    15    17   am
    15    17    19    1
    16    19    20   ar
    17    20    21   ar
    18    21    22   ar
    19    22    23   ar
    20    23    24   ar
    21    24    25    1
    22     4     5   ar
    23     5     6   ar
    24    12     7   ar
    25     6     1   ar
    26    24    19   ar
    27    17    18    1
    28    25    26    1
    29    25    27    1
@<TRIPOS>MOLECULE
*****
 27 29 0 0 0
SMALL
GASTEIGER

@<TRIPOS>ATOM
      1 C         141.2943  139.9505  167.0116 C.ar    1  UNL1        0.0183
      2 C         140.1642  140.3347  166.1032 C.ar    1  UNL1        0.0017
      3 C         140.1341  139.8329  164.6899 C.ar    1  UNL1        0.0046
      4 C         141.2342  138.9469  164.1850 C.ar    1  UNL1        0.0537
      5 C         142.3644  138.5627  165.0934 C.ar    1  UNL1        0.0046
      6 C         142.3944  139.0646  166.5067 C.ar    1  UNL1        0.0017
      7 C         142.1882  141.6241  168.7865 C.ar    1  UNL1        0.0861
      8 C         142.2182  142.1259  170.1997 C.ar    1  UNL1        0.0134
      9 C         141.3844  141.4559  171.2513 C.ar    1  UNL1        0.0214
     10 C         140.5205  140.2842  170.8897 C.ar    1  UNL1        0.0989
     11 N         140.4905  139.7824  169.4765 N.ar    1  UNL1       -0.2432
     12 C         141.3244  140.4524  168.4249 C.ar    1  UNL1        0.0909
     13 N         143.8559  142.9639  166.6832 N.1     1  UNL1       -0.1908
     14 C         143.0221  142.2940  167.7349 C.1     1  UNL1        0.1019
     15 C         141.2041  138.4451  162.7718 C.2     1  UNL1        0.2495
     16 O         140.9577  136.9912  162.4973 O.2     1  UNL1       -0.2698
     17 N         141.4205  139.3972  161.6331 N.am    1  UNL1       -0.2794
     18 H         141.5822  140.3514  161.8133 H       1  UNL1        0.1552
     19 C         141.3904  138.8954  160.2199 C.ar    1  UNL1        0.0636
     20 C         140.0805  138.7474  159.5042 C.ar    1  UNL1        0.0159
     21 C         140.0504  138.2456  158.0909 C.ar    1  UNL1        0.0014
     22 C         141.3303  137.8918  157.3933 C.ar    1  UNL1        0.0013
     23 C         142.6403  138.0397  158.1090 C.ar    1  UNL1        0.0153
     24 C         142.6703  138.5415  159.5222 C.ar    1  UNL1        0.0552
     25 N         143.9803  138.6895  160.2378 N.pl3   1  UNL1       -0.3560
     26 H         144.8203  138.4573  159.7800 H       1  UNL1        0.1424
     27 H         144.0000  139.0188  161.1654 H       1  UNL1        0.1424
@<TRIPOS>BOND
     1    13    14    3
     2    14     7    1
     3     7     8   ar
     4     8     9   ar
     5     9    10   ar
     6    10    11   ar
     7    11    12   ar
     8    12     1    1
     9     1     2   ar
    10     2     3   ar
    11     3     4   ar
    12     4    15    1
    13    15    16    2
    14    15    17   am
    15    17    19    1
    16    19    20   ar
    17    20    21   ar
    18    21    22   ar
    19    22    23   ar
    20    23    24   ar
    21    24    25    1
    22     4     5   ar
    23     5     6   ar
    24    12     7   ar
    25     6     1   ar
    26    24    19   ar
    27    17    18    1
    28    25    26    1
    29    25    27    1
@<TRIPOS>MOLECULE
*****
 27 29 0 0 0
SMALL
GASTEIGER

@<TRIPOS>ATOM
      1 C         140.6382  143.5795  162.5612 C.ar    1  UNL1        0.0183
      2 C         141.3276  142.8472  161.4483 C.ar    1  UNL1        0.0017
      3 C         141.4793  143.4960  160.1044 C.ar    1  UNL1        0.0046
      4 C         140.9414  144.8772  159.8734 C.ar    1  UNL1        0.0537
      5 C         140.2520  145.6094  160.9863 C.ar    1  UNL1        0.0046
      6 C         140.1004  144.9605  162.3302 C.ar    1  UNL1        0.0017
      7 C         139.3395  141.9991  164.1631 C.ar    1  UNL1        0.0861
      8 C         139.1880  141.3503  165.5070 C.ar    1  UNL1        0.0134
      9 C         140.1835  141.6330  166.5928 C.ar    1  UNL1        0.0214
     10 C         141.3305  142.5644  166.3348 C.ar    1  UNL1        0.0989
     11 N         141.4821  143.2133  164.9910 N.ar    1  UNL1       -0.2432
     12 C         140.4866  142.9306  163.9051 C.ar    1  UNL1        0.0909
     13 N         137.3486  141.4338  161.9914 N.1     1  UNL1       -0.1908
     14 C         138.3440  141.7165  163.0772 C.1     1  UNL1        0.1019
     15 C         141.0930  145.5259  158.5295 C.2     1  UNL1        0.2495
     16 O         142.4448  145.9795  158.0640 O.2     1  UNL1       -0.2698
     17 N         139.8928  145.7211  157.6512 N.am    1  UNL1       -0.2794
     18 H         139.0056  145.4234  157.9568 H       1  UNL1        0.1552
     19 C         140.0445  146.3699  156.3073 C.ar    1  UNL1        0.0636
     20 C         140.8319  145.6864  155.2290 C.ar    1  UNL1        0.0159
     21 C         140.9835  146.3353  153.8851 C.ar    1  UNL1        0.0014
     22 C         140.3477  147.6676  153.6195 C.ar    1  UNL1        0.0013
     23 C         139.5603  148.3512  154.6979 C.ar    1  UNL1        0.0153
     24 C         139.4087  147.7024  156.0417 C.ar    1  UNL1        0.0552
     25 N         138.6212  148.3859  157.1200 N.pl3   1  UNL1       -0.3560
     26 H         138.2039  149.2604  156.9457 H       1  UNL1        0.1424
     27 H         138.5217  147.9601  158.0021 H       1  UNL1        0.1424
@<TRIPOS>BOND
     1    13    14    3
     2    14     7    1
     3     7     8   ar
     4     8     9   ar
     5     9    10   ar
     6    10    11   ar
     7    11    12   ar
     8    12     1    1
     9     1     2   ar
    10     2     3   ar
    11     3     4   ar
    12     4    15    1
    13    15    16    2
    14    15    17   am
    15    17    19    1
    16    19    20   ar
    17    20    21   ar
    18    21    22   ar
    19    22    23   ar
    20    23    24   ar
    21    24    25    1
    22     4     5   ar
    23     5     6   ar
    24    12     7   ar
    25     6     1   ar
    26    24    19   ar
    27    17    18    1
    28    25    26    1
    29    25    27    1
@<TRIPOS>MOLECULE
*****
 27 29 0 0 0
SMALL
GASTEIGER

@<TRIPOS>ATOM
      1 C         140.3373  141.7217  166.4890 C.ar    1  UNL1        0.0183
      2 C         141.1795  142.7947  165.8650 C.ar    1  UNL1        0.0017
      3 C         140.8753  143.2747  164.4768 C.ar    1  UNL1        0.0046
      4 C         139.7289  142.6816  163.7125 C.ar    1  UNL1        0.0537
      5 C         138.8866  141.6086  164.3365 C.ar    1  UNL1        0.0046
      6 C         139.1909  141.1287  165.7248 C.ar    1  UNL1        0.0017
      7 C         141.5705  140.0823  168.0832 C.ar    1  UNL1        0.0861
      8 C         141.8747  139.6024  169.4714 C.ar    1  UNL1        0.0134
      9 C         141.2498  140.2820  170.6536 C.ar    1  UNL1        0.0214
     10 C         140.3208  141.4415  170.4477 C.ar    1  UNL1        0.0989
     11 N         140.0166  141.9214  169.0595 N.ar    1  UNL1       -0.2432
     12 C         140.6415  141.2418  167.8772 C.ar    1  UNL1        0.0909
     13 N         142.8202  138.7231  165.7187 N.1     1  UNL1       -0.1908
     14 C         142.1954  139.4027  166.9009 C.1     1  UNL1        0.1019
     15 C         139.4247  143.1616  162.3244 C.2     1  UNL1        0.2495
     16 O         138.1366  143.8771  162.0436 O.2     1  UNL1       -0.2698
     17 N         140.4086  142.9260  161.2169 N.am    1  UNL1       -0.2794
     18 H         141.2540  142.4564  161.4012 H       1  UNL1        0.1552
     19 C         140.1044  143.4060  159.8287 C.ar    1  UNL1        0.0636
     20 C         139.2137  142.5964  158.9336 C.ar    1  UNL1        0.0159
     21 C         138.9095  143.0764  157.5453 C.ar    1  UNL1        0.0014
     22 C         139.4961  144.3659  157.0523 C.ar    1  UNL1        0.0013
     23 C         140.3868  145.1755  157.9474 C.ar    1  UNL1        0.0153
     24 C         140.6910  144.6955  159.3356 C.ar    1  UNL1        0.0552
     25 N         141.5817  145.5051  160.2308 N.pl3   1  UNL1       -0.3560
     26 H         141.9667  146.3514  159.9072 H       1  UNL1        0.1424
     27 H         141.7813  145.1900  161.1419 H       1  UNL1        0.1424
@<TRIPOS>BOND
     1    13    14    3
     2    14     7    1
     3     7     8   ar
     4     8     9   ar
     5     9    10   ar
     6    10    11   ar
     7    11    12   ar
     8    12     1    1
     9     1     2   ar
    10     2     3   ar
    11     3     4   ar
    12     4    15    1
    13    15    16    2
    14    15    17   am
    15    17    19    1
    16    19    20   ar
    17    20    21   ar
    18    21    22   ar
    19    22    23   ar
    20    23    24   ar
    21    24    25    1
    22     4     5   ar
    23     5     6   ar
    24    12     7   ar
    25     6     1   ar
    26    24    19   ar
    27    17    18    1
    28    25    26    1
    29    25    27    1
@<TRIPOS>MOLECULE
*****
 27 29 0 0 0
SMALL
GASTEIGER

@<TRIPOS>ATOM
      1 C         141.1719  143.4015  164.4036 C.ar    1  UNL1        0.0183
      2 C         141.3880  144.8440  164.0535 C.ar    1  UNL1        0.0017
      3 C         141.1002  145.3297  162.6638 C.ar    1  UNL1        0.0046
      4 C         140.5963  144.3730  161.6242 C.ar    1  UNL1        0.0537
      5 C         140.3803  142.9305  161.9743 C.ar    1  UNL1        0.0046
      6 C         140.6681  142.4448  163.3640 C.ar    1  UNL1        0.0017
      7 C         142.8406  142.4557  166.1561 C.ar    1  UNL1        0.0861
      8 C         143.1283  141.9700  167.5457 C.ar    1  UNL1        0.0134
      9 C         142.0353  141.9444  168.5727 C.ar    1  UNL1        0.0214
     10 C         140.6545  142.4045  168.2099 C.ar    1  UNL1        0.0989
     11 N         140.3667  142.8902  166.8203 N.ar    1  UNL1       -0.2432
     12 C         141.4597  142.9158  165.7933 C.ar    1  UNL1        0.0909
     13 N         145.0267  142.5068  164.1022 N.1     1  UNL1       -0.1908
     14 C         143.9336  142.4813  165.1291 C.1     1  UNL1        0.1019
     15 C         140.3085  144.8587  160.2345 C.2     1  UNL1        0.2495
     16 O         139.5393  146.1299  160.0287 O.2     1  UNL1       -0.2698
     17 N         140.7899  144.0733  159.0507 N.am    1  UNL1       -0.2794
     18 H         141.2948  143.2390  159.1859 H       1  UNL1        0.1552
     19 C         140.5022  144.5591  157.6611 C.ar    1  UNL1        0.0636
     20 C         139.3487  143.9880  156.8908 C.ar    1  UNL1        0.0159
     21 C         139.0609  144.4738  155.5011 C.ar    1  UNL1        0.0014
     22 C         139.9266  145.5306  154.8817 C.ar    1  UNL1        0.0013
     23 C         141.0801  146.1017  155.6520 C.ar    1  UNL1        0.0153
     24 C         141.3679  145.6159  157.0417 C.ar    1  UNL1        0.0552
     25 N         142.5214  146.1870  157.8119 N.pl3   1  UNL1       -0.3560
     26 H         143.0896  146.8806  157.4054 H       1  UNL1        0.1424
     27 H         142.7103  145.8681  158.7240 H       1  UNL1        0.1424
@<TRIPOS>BOND
     1    13    14    3
     2    14     7    1
     3     7     8   ar
     4     8     9   ar
     5     9    10   ar
     6    10    11   ar
     7    11    12   ar
     8    12     1    1
     9     1     2   ar
    10     2     3   ar
    11     3     4   ar
    12     4    15    1
    13    15    16    2
    14    15    17   am
    15    17    19    1
    16    19    20   ar
    17    20    21   ar
    18    21    22   ar
    19    22    23   ar
    20    23    24   ar
    21    24    25    1
    22     4     5   ar
    23     5     6   ar
    24    12     7   ar
    25     6     1   ar
    26    24    19   ar
    27    17    18    1
    28    25    26    1
    29    25    27    1
@<TRIPOS>MOLECULE
*****
 27 29 0 0 0
SMALL
GASTEIGER

@<TRIPOS>ATOM
      1 C         140.8227  140.4725  166.2974 C.ar    1  UNL1        0.0183
      2 C         141.7710  139.3330  166.0684 C.ar    1  UNL1        0.0017
      3 C         141.8722  138.7027  164.7111 C.ar    1  UNL1        0.0046
      4 C         141.0251  139.2118  163.5826 C.ar    1  UNL1        0.0537
      5 C         140.0769  140.3513  163.8116 C.ar    1  UNL1        0.0046
      6 C         139.9757  140.9816  165.1690 C.ar    1  UNL1        0.0017
      7 C         139.6413  140.6732  168.6026 C.ar    1  UNL1        0.0861
      8 C         139.5401  141.3035  169.9599 C.ar    1  UNL1        0.0134
      9 C         140.5192  142.3636  170.3694 C.ar    1  UNL1        0.0214
     10 C         141.5994  142.7933  169.4216 C.ar    1  UNL1        0.0989
     11 N         141.7006  142.1629  168.0643 N.ar    1  UNL1       -0.2432
     12 C         140.7215  141.1029  167.6548 C.ar    1  UNL1        0.0909
     13 N         137.6832  138.5530  167.7836 N.1     1  UNL1       -0.1908
     14 C         138.6622  139.6131  168.1931 C.1     1  UNL1        0.1019
     15 C         141.1264  138.5814  162.2253 C.2     1  UNL1        0.2495
     16 O         141.3742  137.1074  162.0996 O.2     1  UNL1       -0.2698
     17 N         140.9797  139.4250  160.9937 N.am    1  UNL1       -0.2794
     18 H         140.8171  140.3925  161.0763 H       1  UNL1        0.1552
     19 C         141.0810  138.7947  159.6364 C.ar    1  UNL1        0.0636
     20 C         139.8498  138.6174  158.7981 C.ar    1  UNL1        0.0159
     21 C         139.9511  137.9870  157.4407 C.ar    1  UNL1        0.0014
     22 C         141.2835  137.5339  156.9217 C.ar    1  UNL1        0.0013
     23 C         142.5147  137.7112  157.7601 C.ar    1  UNL1        0.0153
     24 C         142.4134  138.3416  159.1174 C.ar    1  UNL1        0.0552
     25 N         143.6446  138.5189  159.9557 N.pl3   1  UNL1       -0.3560
     26 H         144.5191  138.2216  159.6150 H       1  UNL1        0.1424
     27 H         143.5782  138.9327  160.8465 H       1  UNL1        0.1424
@<TRIPOS>BOND
     1    13    14    3
     2    14     7    1
     3     7     8   ar
     4     8     9   ar
     5     9    10   ar
     6    10    11   ar
     7    11    12   ar
     8    12     1    1
     9     1     2   ar
    10     2     3   ar
    11     3     4   ar
    12     4    15    1
    13    15    16    2
    14    15    17   am
    15    17    19    1
    16    19    20   ar
    17    20    21   ar
    18    21    22   ar
    19    22    23   ar
    20    23    24   ar
    21    24    25    1
    22     4     5   ar
    23     5     6   ar
    24    12     7   ar
    25     6     1   ar
    26    24    19   ar
    27    17    18    1
    28    25    26    1
    29    25    27    1
