@<TRIPOS>MOLECULE
*****
 30 35 0 0 0
SMALL
GASTEIGER

@<TRIPOS>ATOM
      1 C         139.4413  140.3440  166.1624 C.ar    1  UNL1        0.0193
      2 C         139.5799  138.9555  165.6117 C.ar    1  UNL1        0.0046
      3 C         139.3576  138.7028  164.1500 C.ar    1  UNL1        0.0367
      4 C         138.9966  139.8384  163.2389 C.ar    1  UNL1        0.1360
      5 C         138.8579  141.2268  163.7896 C.ar    1  UNL1        0.0357
      6 C         139.0803  141.4796  165.2513 C.ar    1  UNL1        0.0022
      7 C         138.4969  142.3624  162.8785 C.3     1  UNL1        0.1580
      8 C         138.1430  143.5908  162.0938 C.3     1  UNL1        0.2351
      9 O         138.1152  144.7538  163.0409 O.2     1  UNL1       -0.4478
     10 C         138.4520  144.2441  164.4108 C.2     1  UNL1        0.2770
     11 N         138.5378  145.0677  165.6615 N.pl3   1  UNL1       -0.3133
     12 N         138.6879  142.7661  164.3105 N.2     1  UNL1       -0.2202
     13 C         138.2746  142.1096  161.4168 C.3     1  UNL1        0.1141
     14 C         138.3753  141.7928  161.6710 C.3     1  UNL1        0.1501
     15 O         138.2694  142.1258  161.4038 O.3     1  UNL1       -0.3532
     16 C         138.3753  141.7928  161.6710 C.3     1  UNL1        0.1501
     17 C         138.4132  140.7213  160.8661 C.3     1  UNL1        0.1395
     18 C         138.0520  141.5729  159.6853 C.3     1  UNL1        0.0404
     19 C         138.0987  140.3638  158.7988 C.3     1  UNL1        0.0072
     20 C         138.4599  139.5122  159.9797 C.3     1  UNL1        0.0404
     21 O         138.7742  139.5857  161.7772 O.3     1  UNL1       -0.4826
     22 H         138.3647  146.0362  165.6259 H       1  UNL1        0.1466
     23 H         138.7671  144.6397  166.5179 H       1  UNL1        0.1466
     24 C         141.4540  143.2487  169.9717 C.3     1  UNL1        0.0328
     25 C         140.6700  142.0491  169.5288 C.ar    1  UNL1        0.0006
     26 C         140.1084  141.1022  170.5476 C.ar    1  UNL1        0.1179
     27 N         139.3244  139.9026  170.1047 N.ar    1  UNL1       -0.1467
     28 N         139.1020  139.6498  168.6429 N.ar    1  UNL1       -0.1480
     29 C         139.6636  140.5967  167.6241 C.ar    1  UNL1        0.1026
     30 C         140.4477  141.7964  168.0671 C.ar    1  UNL1        0.0182
@<TRIPOS>BOND
     1    24    25    1
     2    25    26   ar
     3    26    27   ar
     4    27    28   ar
     5    28    29   ar
     6    29     1    1
     7     1     2   ar
     8     2     3   ar
     9     3     4   ar
    10     4     5   ar
    11     5     6   ar
    12     5     7    1
    13     7     8    1
    14     8     9    1
    15     9    10    1
    16    10    11    1
    17    10    12    2
    18     7    13    1
    19    13    14    1
    20    14    15    1
    21    15    16    1
    22    13    17    1
    23    17    18    1
    24    18    19    1
    25    19    20    1
    26    17    21    1
    27    29    30   ar
    28    30    25   ar
    29     6     1   ar
    30    12     7    1
    31    16    13    1
    32    20    17    1
    33    21     4    1
    34    11    22    1
    35    11    23    1
@<TRIPOS>MOLECULE
*****
 30 35 0 0 0
SMALL
GASTEIGER

@<TRIPOS>ATOM
      1 C         141.1417  140.0134  166.7284 C.ar    1  UNL1        0.0193
      2 C         142.4601  139.2998  166.7805 C.ar    1  UNL1        0.0046
      3 C         143.0520  138.7253  165.5277 C.ar    1  UNL1        0.0367
      4 C         142.3256  138.8644  164.2228 C.ar    1  UNL1        0.1360
      5 C         141.0073  139.5779  164.1706 C.ar    1  UNL1        0.0357
      6 C         140.4153  140.1525  165.4234 C.ar    1  UNL1        0.0022
      7 C         140.2808  139.7170  162.8656 C.3     1  UNL1        0.1580
      8 C         139.4431  139.9331  161.6402 C.3     1  UNL1        0.2351
      9 O         138.2131  140.6894  162.0470 O.2     1  UNL1       -0.4478
     10 C         138.2908  140.9408  163.5237 C.2     1  UNL1        0.2770
     11 N         137.2699  141.6658  164.3495 N.pl3   1  UNL1       -0.3133
     12 N         139.5687  140.3399  164.0297 N.2     1  UNL1       -0.2202
     13 C         140.8727  139.1425  161.6128 C.3     1  UNL1        0.1141
     14 C         141.0754  139.1037  161.9769 C.3     1  UNL1        0.1501
     15 O         140.8624  139.1445  161.5942 O.3     1  UNL1       -0.3532
     16 C         141.0754  139.1037  161.9769 C.3     1  UNL1        0.1501
     17 C         142.1911  138.4290  161.6650 C.3     1  UNL1        0.1395
     18 C         141.7749  138.3708  160.2250 C.3     1  UNL1        0.0404
     19 C         143.0282  137.6165  159.8931 C.3     1  UNL1        0.0072
     20 C         143.4444  137.6747  161.3331 C.3     1  UNL1        0.0404
     21 O         142.9175  138.2899  162.9699 O.3     1  UNL1       -0.4826
     22 H         136.4587  142.0266  163.9240 H       1  UNL1        0.1466
     23 H         137.4110  141.7810  165.3170 H       1  UNL1        0.1466
     24 C         140.4542  144.0336  169.9478 C.3     1  UNL1        0.0328
     25 C         140.2060  142.5980  169.5909 C.ar    1  UNL1        0.0006
     26 C         139.3660  141.7369  170.4869 C.ar    1  UNL1        0.1179
     27 N         139.1178  140.3013  170.1300 N.ar    1  UNL1       -0.1467
     28 N         139.7097  139.7267  168.8772 N.ar    1  UNL1       -0.1480
     29 C         140.5498  140.5879  167.9812 C.ar    1  UNL1        0.1026
     30 C         140.7979  142.0236  168.3381 C.ar    1  UNL1        0.0182
@<TRIPOS>BOND
     1    24    25    1
     2    25    26   ar
     3    26    27   ar
     4    27    28   ar
     5    28    29   ar
     6    29     1    1
     7     1     2   ar
     8     2     3   ar
     9     3     4   ar
    10     4     5   ar
    11     5     6   ar
    12     5     7    1
    13     7     8    1
    14     8     9    1
    15     9    10    1
    16    10    11    1
    17    10    12    2
    18     7    13    1
    19    13    14    1
    20    14    15    1
    21    15    16    1
    22    13    17    1
    23    17    18    1
    24    18    19    1
    25    19    20    1
    26    17    21    1
    27    29    30   ar
    28    30    25   ar
    29     6     1   ar
    30    12     7    1
    31    16    13    1
    32    20    17    1
    33    21     4    1
    34    11    22    1
    35    11    23    1
@<TRIPOS>MOLECULE
*****
 30 35 0 0 0
SMALL
GASTEIGER

@<TRIPOS>ATOM
      1 C         139.9155  140.0548  167.2571 C.ar    1  UNL1        0.0193
      2 C         138.6949  139.2117  167.0346 C.ar    1  UNL1        0.0046
      3 C         138.3389  138.7581  165.6498 C.ar    1  UNL1        0.0367
      4 C         139.2035  139.1477  164.4876 C.ar    1  UNL1        0.1360
      5 C         140.4240  139.9908  164.7100 C.ar    1  UNL1        0.0357
      6 C         140.7800  140.4443  166.0948 C.ar    1  UNL1        0.0022
      7 C         141.2885  140.3803  163.5478 C.3     1  UNL1        0.1580
      8 C         142.2434  140.8460  162.4889 C.3     1  UNL1        0.2351
      9 O         143.3136  141.6593  163.1549 O.2     1  UNL1       -0.4478
     10 C         143.0200  141.6962  164.6254 C.2     1  UNL1        0.2770
     11 N         143.8348  142.4000  165.6697 N.pl3   1  UNL1       -0.3133
     12 N         141.7684  140.9058  164.8683 N.2     1  UNL1       -0.2202
     13 C         140.9325  139.9268  162.1630 C.3     1  UNL1        0.1141
     14 C         140.6913  139.8181  162.4873 C.3     1  UNL1        0.1501
     15 O         140.9448  139.9323  162.1465 O.3     1  UNL1       -0.3532
     16 C         140.6913  139.8181  162.4873 C.3     1  UNL1        0.1501
     17 C         139.7120  139.0837  161.9406 C.3     1  UNL1        0.1395
     18 C         140.3114  139.2662  160.5777 C.3     1  UNL1        0.0404
     19 C         139.2085  138.4423  159.9821 C.3     1  UNL1        0.0072
     20 C         138.6090  138.2598  161.3450 C.3     1  UNL1        0.0404
     21 O         138.8475  138.6942  163.1028 O.3     1  UNL1       -0.4826
     22 H         144.6450  142.8956  165.4106 H       1  UNL1        0.1466
     23 H         143.5594  142.3662  166.6143 H       1  UNL1        0.1466
     24 C         142.6991  143.0958  170.4199 C.3     1  UNL1        0.0328
     25 C         141.6633  142.0288  170.2233 C.ar    1  UNL1        0.0006
     26 C         140.9835  141.4154  171.4114 C.ar    1  UNL1        0.1179
     27 N         139.9478  140.3484  171.2147 N.ar    1  UNL1       -0.1467
     28 N         139.5917  139.8948  169.8299 N.ar    1  UNL1       -0.1480
     29 C         140.2715  140.5083  168.6418 C.ar    1  UNL1        0.1026
     30 C         141.3073  141.5753  168.8385 C.ar    1  UNL1        0.0182
@<TRIPOS>BOND
     1    24    25    1
     2    25    26   ar
     3    26    27   ar
     4    27    28   ar
     5    28    29   ar
     6    29     1    1
     7     1     2   ar
     8     2     3   ar
     9     3     4   ar
    10     4     5   ar
    11     5     6   ar
    12     5     7    1
    13     7     8    1
    14     8     9    1
    15     9    10    1
    16    10    11    1
    17    10    12    2
    18     7    13    1
    19    13    14    1
    20    14    15    1
    21    15    16    1
    22    13    17    1
    23    17    18    1
    24    18    19    1
    25    19    20    1
    26    17    21    1
    27    29    30   ar
    28    30    25   ar
    29     6     1   ar
    30    12     7    1
    31    16    13    1
    32    20    17    1
    33    21     4    1
    34    11    22    1
    35    11    23    1
@<TRIPOS>MOLECULE
*****
 30 35 0 0 0
SMALL
GASTEIGER

@<TRIPOS>ATOM
      1 C         140.7398  143.4353  163.8790 C.ar    1  UNL1        0.0193
      2 C         139.9352  143.9041  165.0550 C.ar    1  UNL1        0.0046
      3 C         140.0565  143.2015  166.3747 C.ar    1  UNL1        0.0367
      4 C         140.9823  142.0301  166.5184 C.ar    1  UNL1        0.1360
      5 C         141.7869  141.5613  165.3425 C.ar    1  UNL1        0.0357
      6 C         141.6656  142.2639  164.0227 C.ar    1  UNL1        0.0022
      7 C         142.7127  140.3899  165.4862 C.3     1  UNL1        0.1580
      8 C         143.6747  139.2390  165.4785 C.3     1  UNL1        0.2351
      9 O         144.2531  139.1275  164.0989 O.2     1  UNL1       -0.4478
     10 C         143.6486  140.2094  163.2540 C.2     1  UNL1        0.2770
     11 N         143.9441  140.4661  161.8061 N.pl3   1  UNL1       -0.3133
     12 N         142.6966  140.9897  164.1113 N.2     1  UNL1       -0.2202
     13 C         142.8340  139.6873  166.8058 C.3     1  UNL1        0.1141
     14 C         142.5757  140.0141  166.7657 C.3     1  UNL1        0.1501
     15 O         142.8472  139.6706  166.8079 O.3     1  UNL1       -0.3532
     16 C         142.5757  140.0141  166.7657 C.3     1  UNL1        0.1501
     17 C         142.0295  140.1561  167.9818 C.3     1  UNL1        0.1395
     18 C         142.8216  138.9896  168.4936 C.3     1  UNL1        0.0404
     19 C         142.2010  139.1624  169.8482 C.3     1  UNL1        0.0072
     20 C         141.4088  140.3288  169.3364 C.3     1  UNL1        0.0404
     21 O         141.1036  141.3275  167.8381 O.3     1  UNL1       -0.4826
     22 H         144.5879  139.8962  161.3265 H       1  UNL1        0.1466
     23 H         143.4943  141.2046  161.3353 H       1  UNL1        0.1466
     24 C         142.1462  143.9369  158.9020 C.3     1  UNL1        0.0328
     25 C         141.3217  144.3887  160.0708 C.ar    1  UNL1        0.0006
     26 C         140.3760  145.5432  159.9199 C.ar    1  UNL1        0.1179
     27 N         139.5516  145.9951  161.0887 N.ar    1  UNL1       -0.1467
     28 N         139.6728  145.2924  162.4084 N.ar    1  UNL1       -0.1480
     29 C         140.6185  144.1380  162.5593 C.ar    1  UNL1        0.1026
     30 C         141.4430  143.6861  161.3905 C.ar    1  UNL1        0.0182
@<TRIPOS>BOND
     1    24    25    1
     2    25    26   ar
     3    26    27   ar
     4    27    28   ar
     5    28    29   ar
     6    29     1    1
     7     1     2   ar
     8     2     3   ar
     9     3     4   ar
    10     4     5   ar
    11     5     6   ar
    12     5     7    1
    13     7     8    1
    14     8     9    1
    15     9    10    1
    16    10    11    1
    17    10    12    2
    18     7    13    1
    19    13    14    1
    20    14    15    1
    21    15    16    1
    22    13    17    1
    23    17    18    1
    24    18    19    1
    25    19    20    1
    26    17    21    1
    27    29    30   ar
    28    30    25   ar
    29     6     1   ar
    30    12     7    1
    31    16    13    1
    32    20    17    1
    33    21     4    1
    34    11    22    1
    35    11    23    1
@<TRIPOS>MOLECULE
*****
 30 35 0 0 0
SMALL
GASTEIGER

@<TRIPOS>ATOM
      1 C         142.0345  139.1592  165.5440 C.ar    1  UNL1        0.0193
      2 C         141.4248  137.9567  164.8865 C.ar    1  UNL1        0.0046
      3 C         141.5491  137.7688  163.4036 C.ar    1  UNL1        0.0367
      4 C         142.2833  138.7834  162.5780 C.ar    1  UNL1        0.1360
      5 C         142.8930  139.9859  163.2354 C.ar    1  UNL1        0.0357
      6 C         142.7687  140.1738  164.7184 C.ar    1  UNL1        0.0022
      7 C         143.6272  141.0005  162.4098 C.3     1  UNL1        0.1580
      8 C         144.3866  142.0935  161.7179 C.3     1  UNL1        0.2351
      9 O         144.8134  143.0897  162.7551 O.2     1  UNL1       -0.4478
     10 C         144.3177  142.6124  164.0879 C.2     1  UNL1        0.2770
     11 N         144.5197  143.3047  165.4031 N.pl3   1  UNL1       -0.3133
     12 N         143.5846  141.3212  163.8746 N.2     1  UNL1       -0.2202
     13 C         143.7515  140.8127  160.9269 C.3     1  UNL1        0.1141
     14 C         143.5467  140.5296  161.1572 C.3     1  UNL1        0.1501
     15 O         143.7620  140.8272  160.9151 O.3     1  UNL1       -0.3532
     16 C         143.5467  140.5296  161.1572 C.3     1  UNL1        0.1501
     17 C         143.1418  139.6102  160.2695 C.3     1  UNL1        0.1395
     18 C         143.7783  140.3825  159.1521 C.3     1  UNL1        0.0404
     19 C         143.3177  139.3445  158.1721 C.3     1  UNL1        0.0072
     20 C         142.6811  138.5723  159.2895 C.3     1  UNL1        0.0404
     21 O         142.4076  138.5956  161.0951 O.3     1  UNL1       -0.4826
     22 H         145.0176  144.1531  165.4415 H       1  UNL1        0.1466
     23 H         144.1543  142.9106  166.2280 H       1  UNL1        0.1466
     24 C         139.2548  140.6482  169.6738 C.3     1  UNL1        0.0328
     25 C         140.5203  140.0916  169.0919 C.ar    1  UNL1        0.0006
     26 C         141.6614  139.7228  169.9929 C.ar    1  UNL1        0.1179
     27 N         142.9268  139.1661  169.4110 N.ar    1  UNL1       -0.1467
     28 N         143.0513  138.9782  167.9280 N.ar    1  UNL1       -0.1480
     29 C         141.9102  139.3470  167.0269 C.ar    1  UNL1        0.1026
     30 C         140.6447  139.9037  167.6089 C.ar    1  UNL1        0.0182
@<TRIPOS>BOND
     1    24    25    1
     2    25    26   ar
     3    26    27   ar
     4    27    28   ar
     5    28    29   ar
     6    29     1    1
     7     1     2   ar
     8     2     3   ar
     9     3     4   ar
    10     4     5   ar
    11     5     6   ar
    12     5     7    1
    13     7     8    1
    14     8     9    1
    15     9    10    1
    16    10    11    1
    17    10    12    2
    18     7    13    1
    19    13    14    1
    20    14    15    1
    21    15    16    1
    22    13    17    1
    23    17    18    1
    24    18    19    1
    25    19    20    1
    26    17    21    1
    27    29    30   ar
    28    30    25   ar
    29     6     1   ar
    30    12     7    1
    31    16    13    1
    32    20    17    1
    33    21     4    1
    34    11    22    1
    35    11    23    1
@<TRIPOS>MOLECULE
*****
 30 35 0 0 0
SMALL
GASTEIGER

@<TRIPOS>ATOM
      1 C         142.6373  139.2238  162.5092 C.ar    1  UNL1        0.0193
      2 C         143.9614  139.1523  163.2106 C.ar    1  UNL1        0.0046
      3 C         144.0274  139.2833  164.7034 C.ar    1  UNL1        0.0367
      4 C         142.7694  139.4859  165.4949 C.ar    1  UNL1        0.1360
      5 C         141.4454  139.5575  164.7936 C.ar    1  UNL1        0.0357
      6 C         141.3794  139.4264  163.3007 C.ar    1  UNL1        0.0022
      7 C         140.1874  139.7601  165.5851 C.3     1  UNL1        0.1580
      8 C         138.8524  139.9580  166.2398 C.3     1  UNL1        0.2351
      9 O         137.8058  139.9665  165.1652 O.2     1  UNL1       -0.4478
     10 C         138.4940  139.7739  163.8464 C.2     1  UNL1        0.2770
     11 N         137.8273  139.7185  162.5039 N.pl3   1  UNL1       -0.3133
     12 N         139.9659  139.6463  164.1058 N.2     1  UNL1       -0.2202
     13 C         140.2535  139.8911  167.0778 C.3     1  UNL1        0.1141
     14 C         140.6044  139.8346  166.8570 C.3     1  UNL1        0.1501
     15 O         140.2355  139.8940  167.0891 O.3     1  UNL1       -0.3532
     16 C         140.6044  139.8346  166.8570 C.3     1  UNL1        0.1501
     17 C         141.5775  139.8195  167.7791 C.3     1  UNL1        0.1395
     18 C         140.5701  140.0241  168.8716 C.3     1  UNL1        0.0404
     19 C         141.6709  140.0049  169.8904 C.3     1  UNL1        0.0072
     20 C         142.6782  139.8003  168.7979 C.3     1  UNL1        0.0404
     21 O         142.8354  139.6169  166.9876 O.3     1  UNL1       -0.4826
     22 H         136.8498  139.8129  162.4354 H       1  UNL1        0.1466
     23 H         138.3674  139.5879  161.6911 H       1  UNL1        0.1466
     24 C         139.8871  138.3693  158.1843 C.3     1  UNL1        0.0328
     25 C         141.1962  138.6655  158.8539 C.ar    1  UNL1        0.0006
     26 C         142.4392  138.8307  158.0308 C.ar    1  UNL1        0.1179
     27 N         143.7483  139.1270  158.7005 N.ar    1  UNL1       -0.1467
     28 N         143.8144  139.2580  160.1934 N.ar    1  UNL1       -0.1480
     29 C         142.5713  139.0928  161.0165 C.ar    1  UNL1        0.1026
     30 C         141.2622  138.7965  160.3467 C.ar    1  UNL1        0.0182
@<TRIPOS>BOND
     1    24    25    1
     2    25    26   ar
     3    26    27   ar
     4    27    28   ar
     5    28    29   ar
     6    29     1    1
     7     1     2   ar
     8     2     3   ar
     9     3     4   ar
    10     4     5   ar
    11     5     6   ar
    12     5     7    1
    13     7     8    1
    14     8     9    1
    15     9    10    1
    16    10    11    1
    17    10    12    2
    18     7    13    1
    19    13    14    1
    20    14    15    1
    21    15    16    1
    22    13    17    1
    23    17    18    1
    24    18    19    1
    25    19    20    1
    26    17    21    1
    27    29    30   ar
    28    30    25   ar
    29     6     1   ar
    30    12     7    1
    31    16    13    1
    32    20    17    1
    33    21     4    1
    34    11    22    1
    35    11    23    1
@<TRIPOS>MOLECULE
*****
 30 35 0 0 0
SMALL
GASTEIGER

@<TRIPOS>ATOM
      1 C         143.2515  142.9886  162.0992 C.ar    1  UNL1        0.0193
      2 C         144.5167  142.7044  162.8535 C.ar    1  UNL1        0.0046
      3 C         144.4755  142.5071  164.3398 C.ar    1  UNL1        0.0367
      4 C         143.1692  142.5938  165.0720 C.ar    1  UNL1        0.1360
      5 C         141.9041  142.8780  164.3179 C.ar    1  UNL1        0.0357
      6 C         141.9453  143.0753  162.8314 C.ar    1  UNL1        0.0022
      7 C         140.5978  142.9647  165.0501 C.3     1  UNL1        0.1580
      8 C         139.2248  143.0801  165.6430 C.3     1  UNL1        0.2351
      9 O         138.2620  143.3701  164.5299 O.2     1  UNL1       -0.4478
     10 C         139.0399  143.4339  163.2490 C.2     1  UNL1        0.2770
     11 N         138.4737  143.7013  161.8860 N.pl3   1  UNL1       -0.3133
     12 N         140.4836  143.1834  163.5704 N.2     1  UNL1       -0.2202
     13 C         140.5566  142.7674  166.5364 C.3     1  UNL1        0.1141
     14 C         140.9211  142.7432  166.3321 C.3     1  UNL1        0.1501
     15 O         140.5380  142.7686  166.5469 O.3     1  UNL1       -0.3532
     16 C         140.9211  142.7432  166.3321 C.3     1  UNL1        0.1501
     17 C         141.8217  142.4833  167.2906 C.3     1  UNL1        0.1395
     18 C         140.7429  142.4951  168.3327 C.3     1  UNL1        0.0404
     19 C         141.7635  142.2042  169.3927 C.3     1  UNL1        0.0072
     20 C         142.8423  142.1923  168.3506 C.3     1  UNL1        0.0404
     21 O         143.1280  142.3965  166.5584 O.3     1  UNL1       -0.4826
     22 H         137.5075  143.8546  161.7757 H       1  UNL1        0.1466
     23 H         139.0683  143.7235  161.1017 H       1  UNL1        0.1466
     24 C         145.0520  141.6079  157.4247 C.3     1  UNL1        0.0328
     25 C         144.1930  142.4955  158.2755 C.ar    1  UNL1        0.0006
     26 C         143.3752  143.5806  157.6400 C.ar    1  UNL1        0.1179
     27 N         142.5161  144.4682  158.4909 N.ar    1  UNL1       -0.1467
     28 N         142.4749  144.2709  159.9774 N.ar    1  UNL1       -0.1480
     29 C         143.2927  143.1859  160.6129 C.ar    1  UNL1        0.1026
     30 C         144.1518  142.2982  159.7619 C.ar    1  UNL1        0.0182
@<TRIPOS>BOND
     1    24    25    1
     2    25    26   ar
     3    26    27   ar
     4    27    28   ar
     5    28    29   ar
     6    29     1    1
     7     1     2   ar
     8     2     3   ar
     9     3     4   ar
    10     4     5   ar
    11     5     6   ar
    12     5     7    1
    13     7     8    1
    14     8     9    1
    15     9    10    1
    16    10    11    1
    17    10    12    2
    18     7    13    1
    19    13    14    1
    20    14    15    1
    21    15    16    1
    22    13    17    1
    23    17    18    1
    24    18    19    1
    25    19    20    1
    26    17    21    1
    27    29    30   ar
    28    30    25   ar
    29     6     1   ar
    30    12     7    1
    31    16    13    1
    32    20    17    1
    33    21     4    1
    34    11    22    1
    35    11    23    1
@<TRIPOS>MOLECULE
*****
 30 35 0 0 0
SMALL
GASTEIGER

@<TRIPOS>ATOM
      1 C         141.3935  143.2406  163.4553 C.ar    1  UNL1        0.0193
      2 C         142.6889  143.6733  164.0756 C.ar    1  UNL1        0.0046
      3 C         143.1003  143.1275  165.4108 C.ar    1  UNL1        0.0367
      4 C         142.2164  142.1489  166.1257 C.ar    1  UNL1        0.1360
      5 C         140.9211  141.7162  165.5055 C.ar    1  UNL1        0.0357
      6 C         140.5096  142.2620  164.1702 C.ar    1  UNL1        0.0022
      7 C         140.0371  140.7376  166.2204 C.3     1  UNL1        0.1580
      8 C         139.0551  139.7713  166.8134 C.3     1  UNL1        0.2351
      9 O         137.9073  139.6317  165.8577 O.2     1  UNL1       -0.4478
     10 C         138.1800  140.5117  164.6741 C.2     1  UNL1        0.2770
     11 N         137.2924  140.6790  163.4766 N.pl3   1  UNL1       -0.3133
     12 N         139.4964  141.1953  164.8982 N.2     1  UNL1       -0.2202
     13 C         140.4486  140.1918  167.5556 C.3     1  UNL1        0.1141
     14 C         140.6952  140.4648  167.3561 C.3     1  UNL1        0.1501
     15 O         140.4360  140.1779  167.5658 O.3     1  UNL1       -0.3532
     16 C         140.6952  140.4648  167.3561 C.3     1  UNL1        0.1501
     17 C         141.7439  140.6246  168.1759 C.3     1  UNL1        0.1395
     18 C         141.1452  139.6625  169.1587 C.3     1  UNL1        0.0404
     19 C         142.3259  139.8526  170.0642 C.3     1  UNL1        0.0072
     20 C         142.9246  140.8148  169.0814 C.3     1  UNL1        0.0404
     21 O         142.6279  141.6031  167.4609 O.3     1  UNL1       -0.4826
     22 H         136.4429  140.1845  163.4207 H       1  UNL1        0.1466
     23 H         137.5594  141.2831  162.7465 H       1  UNL1        0.1466
     24 C         141.1394  142.7717  158.2866 C.3     1  UNL1        0.0328
     25 C         140.8550  143.5519  159.5357 C.ar    1  UNL1        0.0006
     26 C         140.1592  144.8780  159.4497 C.ar    1  UNL1        0.1179
     27 N         139.8748  145.6582  160.6988 N.ar    1  UNL1       -0.1467
     28 N         140.2862  145.1124  162.0340 N.ar    1  UNL1       -0.1480
     29 C         140.9820  143.7864  162.1201 C.ar    1  UNL1        0.1026
     30 C         141.2664  143.0061  160.8709 C.ar    1  UNL1        0.0182
@<TRIPOS>BOND
     1    24    25    1
     2    25    26   ar
     3    26    27   ar
     4    27    28   ar
     5    28    29   ar
     6    29     1    1
     7     1     2   ar
     8     2     3   ar
     9     3     4   ar
    10     4     5   ar
    11     5     6   ar
    12     5     7    1
    13     7     8    1
    14     8     9    1
    15     9    10    1
    16    10    11    1
    17    10    12    2
    18     7    13    1
    19    13    14    1
    20    14    15    1
    21    15    16    1
    22    13    17    1
    23    17    18    1
    24    18    19    1
    25    19    20    1
    26    17    21    1
    27    29    30   ar
    28    30    25   ar
    29     6     1   ar
    30    12     7    1
    31    16    13    1
    32    20    17    1
    33    21     4    1
    34    11    22    1
    35    11    23    1
@<TRIPOS>MOLECULE
*****
 30 35 0 0 0
SMALL
GASTEIGER

@<TRIPOS>ATOM
      1 C         142.4107  139.4166  163.9280 C.ar    1  UNL1        0.0193
      2 C         143.0746  138.6995  165.0661 C.ar    1  UNL1        0.0046
      3 C         142.9130  139.2068  166.4684 C.ar    1  UNL1        0.0367
      4 C         142.0877  140.4311  166.7327 C.ar    1  UNL1        0.1360
      5 C         141.4239  141.1482  165.5947 C.ar    1  UNL1        0.0357
      6 C         141.5854  140.6409  164.1923 C.ar    1  UNL1        0.0022
      7 C         140.5985  142.3725  165.8590 C.3     1  UNL1        0.1580
      8 C         139.7474  143.6028  165.9685 C.3     1  UNL1        0.2351
      9 O         139.2921  143.9758  164.5887 O.2     1  UNL1       -0.4478
     10 C         139.8618  142.9761  163.6265 C.2     1  UNL1        0.2770
     11 N         139.6596  142.9686  162.1403 N.pl3   1  UNL1       -0.3133
     12 N         140.6692  141.9852  164.4115 N.2     1  UNL1       -0.2202
     13 C         140.4370  142.8798  167.2613 C.3     1  UNL1        0.1141
     14 C         140.6673  142.5382  167.1875 C.3     1  UNL1        0.1501
     15 O         140.4252  142.8972  167.2651 O.3     1  UNL1       -0.3532
     16 C         140.6673  142.5382  167.1875 C.3     1  UNL1        0.1501
     17 C         141.1009  142.1627  168.3993 C.3     1  UNL1        0.1395
     18 C         140.3787  143.3140  169.0343 C.3     1  UNL1        0.0404
     19 C         140.8725  142.8802  170.3826 C.3     1  UNL1        0.0072
     20 C         141.5946  141.7289  169.7476 C.3     1  UNL1        0.0404
     21 O         141.9262  140.9384  168.1350 O.3     1  UNL1       -0.4826
     22 H         139.1095  143.6654  161.7148 H       1  UNL1        0.1466
     23 H         140.0771  142.2668  161.5903 H       1  UNL1        0.1466
     24 C         140.4407  138.5654  159.1957 C.3     1  UNL1        0.0328
     25 C         141.5872  138.4837  160.1595 C.ar    1  UNL1        0.0006
     26 C         142.8952  137.8947  159.7209 C.ar    1  UNL1        0.1179
     27 N         144.0416  137.8130  160.6847 N.ar    1  UNL1       -0.1467
     28 N         143.8802  138.3203  162.0871 N.ar    1  UNL1       -0.1480
     29 C         142.5722  138.9093  162.5256 C.ar    1  UNL1        0.1026
     30 C         141.4257  138.9910  161.5618 C.ar    1  UNL1        0.0182
@<TRIPOS>BOND
     1    24    25    1
     2    25    26   ar
     3    26    27   ar
     4    27    28   ar
     5    28    29   ar
     6    29     1    1
     7     1     2   ar
     8     2     3   ar
     9     3     4   ar
    10     4     5   ar
    11     5     6   ar
    12     5     7    1
    13     7     8    1
    14     8     9    1
    15     9    10    1
    16    10    11    1
    17    10    12    2
    18     7    13    1
    19    13    14    1
    20    14    15    1
    21    15    16    1
    22    13    17    1
    23    17    18    1
    24    18    19    1
    25    19    20    1
    26    17    21    1
    27    29    30   ar
    28    30    25   ar
    29     6     1   ar
    30    12     7    1
    31    16    13    1
    32    20    17    1
    33    21     4    1
    34    11    22    1
    35    11    23    1
