@<TRIPOS>MOLECULE
*****
 39 43 0 0 0
SMALL
GASTEIGER

@<TRIPOS>ATOM
      1 N         142.0328  139.3595  161.7735 N.3     1  UNL1       -0.2750
      2 C         143.1335  140.3577  161.5678 C.3     1  UNL1        0.0594
      3 C         143.7550  140.0930  160.2285 C.3     1  UNL1        0.0174
      4 C         143.0384  138.9313  159.6065 C.3     1  UNL1        0.0174
      5 C         141.9741  138.4780  160.5612 C.3     1  UNL1        0.0594
      6 C         141.0061  138.2464  161.6965 C.3     1  UNL1        0.0386
      7 C         141.1834  139.2028  162.8382 C.3     1  UNL1        0.0890
      8 C         142.2472  140.2585  162.7739 C.3     1  UNL1        0.0386
      9 N         140.2971  139.1037  164.0443 N.ar    1  UNL1       -0.3202
     10 C         139.0340  138.3011  164.1467 C.ar    1  UNL1        0.1201
     11 C         138.4354  137.4568  163.0609 C.3     1  UNL1        0.0718
     12 N         138.4746  138.4911  165.5254 N.ar    1  UNL1       -0.2339
     13 C         139.3920  139.4111  166.2752 C.ar    1  UNL1        0.0919
     14 C         140.5184  139.7896  165.3598 C.ar    1  UNL1        0.0549
     15 C         141.6000  140.7101  165.8423 C.3     1  UNL1        0.0666
     16 C         141.5552  141.2520  167.2403 C.3     1  UNL1        0.1000
     17 N         140.4288  140.8734  168.1557 N.am    1  UNL1       -0.2735
     18 C         140.3840  141.4153  169.5537 C.2     1  UNL1        0.2250
     19 O         139.3390  141.1425  170.5946 O.2     1  UNL1       -0.2749
     20 C         139.3472  139.9529  167.6731 C.3     1  UNL1        0.1405
     21 C         141.4656  142.3358  170.0363 C.3     1  UNL1        0.0691
     22 C         140.6454  143.5195  169.6168 C.3     1  UNL1        0.0091
     23 C         142.2858  141.1520  170.4557 C.3     1  UNL1        0.0091
     24 C         142.5472  143.2563  170.5189 C.3     1  UNL1        0.0091
     25 C         141.1465  139.2604  162.9795 C.3     1  UNL1        0.0741
     26 C         139.7810  139.8807  162.9598 C.3     1  UNL1        0.0414
     27 C         139.5729  141.2158  162.3083 C.3     1  UNL1        0.0955
     28 C         139.4012  142.4438  163.1525 C.ar    1  UNL1       -0.0022
     29 C         138.0998  142.6951  163.8547 C.ar    1  UNL1       -0.0025
     30 C         137.9279  143.9230  164.6989 C.ar    1  UNL1        0.0020
     31 C         139.0576  144.8996  164.8408 C.ar    1  UNL1        0.0296
     32 C         140.3590  144.6483  164.1385 C.ar    1  UNL1        0.1399
     33 F         141.5839  145.5136  164.1706 F       1  UNL1       -0.2042
     34 C         140.5308  143.4204  163.2944 C.ar    1  UNL1        0.0270
     35 C         138.4317  140.7198  158.5398 C.3     1  UNL1        0.0946
     36 C         138.4680  140.6128  160.0356 C.2     1  UNL1        0.2232
     37 O         137.3120  139.7358  160.4154 O.2     1  UNL1       -0.2751
     38 N         139.5367  141.3228  160.8126 N.am    1  UNL1       -0.3021
     39 H         140.2143  141.8591  160.3409 H       1  UNL1        0.1497
@<TRIPOS>BOND
     1    35    36    1
     2    36    37    2
     3    36    38   am
     4    38    27    1
     5    27    26    1
     6    26    25    1
     7    25     1    1
     8     1     2    1
     9     2     3    1
    10     3     4    1
    11     5     4    1
    12     5     6    1
    13     6     7    1
    14     7     9    1
    15     9    10   ar
    16    10    11    1
    17    10    12   ar
    18    12    13   ar
    19    13    14   ar
    20    14    15    1
    21    15    16    1
    22    16    17    1
    23    17    18   am
    24    18    19    2
    25    18    21    1
    26    21    22    1
    27    21    23    1
    28    21    24    1
    29    17    20    1
    30     7     8    1
    31    27    28    1
    32    28    29   ar
    33    29    30   ar
    34    30    31   ar
    35    31    32   ar
    36    32    33    1
    37    32    34   ar
    38     5     1    1
    39    14     9   ar
    40    34    28   ar
    41     8     2    1
    42    20    13    1
    43    38    39    1
@<TRIPOS>MOLECULE
*****
 39 43 0 0 0
SMALL
GASTEIGER

@<TRIPOS>ATOM
      1 N         139.8293  141.5103  167.9352 N.3     1  UNL1       -0.2750
      2 C         139.5366  141.0266  169.3246 C.3     1  UNL1        0.0594
      3 C         139.8760  142.1311  170.2811 C.3     1  UNL1        0.0174
      4 C         140.3785  143.2974  169.4829 C.3     1  UNL1        0.0174
      5 C         140.3496  142.9138  168.0331 C.3     1  UNL1        0.0594
      6 C         140.2132  142.2644  166.6770 C.3     1  UNL1        0.0386
      7 C         139.6813  140.8632  166.7356 C.3     1  UNL1        0.0890
      8 C         139.3429  140.2442  168.0595 C.3     1  UNL1        0.0386
      9 N         139.4876  140.0808  165.4706 N.ar    1  UNL1       -0.3202
     10 C         138.7262  138.7954  165.3367 C.ar    1  UNL1        0.1201
     11 C         138.0248  138.0666  166.4443 C.3     1  UNL1        0.0718
     12 N         138.7894  138.3667  163.9006 N.ar    1  UNL1       -0.2339
     13 C         139.5899  139.3872  163.1470 C.ar    1  UNL1        0.0919
     14 C         140.0214  140.4466  164.1173 C.ar    1  UNL1        0.0549
     15 C         140.8446  141.6074  163.6432 C.3     1  UNL1        0.0666
     16 C         141.2362  141.7088  162.1989 C.3     1  UNL1        0.1000
     17 N         140.8047  140.6494  161.2286 N.am    1  UNL1       -0.2735
     18 C         141.1964  140.7509  159.7841 C.2     1  UNL1        0.2250
     19 O         140.8536  139.7882  158.6861 O.2     1  UNL1       -0.2749
     20 C         139.9815  139.4886  161.7026 C.3     1  UNL1        0.1405
     21 C         142.0196  141.9117  159.3100 C.3     1  UNL1        0.0691
     22 C         143.2733  141.1401  159.5976 C.3     1  UNL1        0.0091
     23 C         140.7659  142.6833  159.0225 C.3     1  UNL1        0.0091
     24 C         142.8429  143.0726  158.8359 C.3     1  UNL1        0.0091
     25 C         139.6356  140.7280  166.6702 C.3     1  UNL1        0.0741
     26 C         140.6136  139.6542  166.2952 C.3     1  UNL1        0.0414
     27 C         142.0236  139.7131  166.8035 C.3     1  UNL1        0.0955
     28 C         143.1357  140.1241  165.8846 C.ar    1  UNL1       -0.0022
     29 C         143.9413  139.0808  165.1688 C.ar    1  UNL1       -0.0025
     30 C         145.0534  139.4916  164.2498 C.ar    1  UNL1        0.0020
     31 C         145.3597  140.9459  164.0467 C.ar    1  UNL1        0.0296
     32 C         144.5540  141.9892  164.7625 C.ar    1  UNL1        0.1399
     33 F         144.7232  143.4772  164.6758 F       1  UNL1       -0.2042
     34 C         143.4420  141.5784  165.6814 C.ar    1  UNL1        0.0270
     35 C         143.2235  140.0329  170.5729 C.3     1  UNL1        0.0946
     36 C         142.9256  140.3850  169.1455 C.2     1  UNL1        0.2232
     37 O         143.3484  141.8140  168.9754 O.2     1  UNL1       -0.2751
     38 N         142.3216  139.3610  168.2308 N.am    1  UNL1       -0.3021
     39 H         142.1208  138.4578  168.5672 H       1  UNL1        0.1497
@<TRIPOS>BOND
     1    35    36    1
     2    36    37    2
     3    36    38   am
     4    38    27    1
     5    27    26    1
     6    26    25    1
     7    25     1    1
     8     1     2    1
     9     2     3    1
    10     3     4    1
    11     5     4    1
    12     5     6    1
    13     6     7    1
    14     7     9    1
    15     9    10   ar
    16    10    11    1
    17    10    12   ar
    18    12    13   ar
    19    13    14   ar
    20    14    15    1
    21    15    16    1
    22    16    17    1
    23    17    18   am
    24    18    19    2
    25    18    21    1
    26    21    22    1
    27    21    23    1
    28    21    24    1
    29    17    20    1
    30     7     8    1
    31    27    28    1
    32    28    29   ar
    33    29    30   ar
    34    30    31   ar
    35    31    32   ar
    36    32    33    1
    37    32    34   ar
    38     5     1    1
    39    14     9   ar
    40    34    28   ar
    41     8     2    1
    42    20    13    1
    43    38    39    1
@<TRIPOS>MOLECULE
*****
 39 43 0 0 0
SMALL
GASTEIGER

@<TRIPOS>ATOM
      1 N         139.9148  139.0548  165.7786 N.3     1  UNL1       -0.2750
      2 C         139.9918  139.6557  167.1509 C.3     1  UNL1        0.0594
      3 C         138.6476  139.5045  167.7992 C.3     1  UNL1        0.0174
      4 C         137.7399  138.8102  166.8276 C.3     1  UNL1        0.0174
      5 C         138.5230  138.5322  165.5788 C.3     1  UNL1        0.0594
      6 C         139.5380  138.3864  164.4708 C.3     1  UNL1        0.0386
      7 C         140.8833  138.9544  164.8134 C.3     1  UNL1        0.0890
      8 C         141.1102  139.5891  166.1535 C.3     1  UNL1        0.0386
      9 N         142.0017  138.8877  163.8161 N.ar    1  UNL1       -0.3202
     10 C         143.4657  138.8226  164.1361 C.ar    1  UNL1        0.1201
     11 C         144.0684  138.8128  165.5097 C.3     1  UNL1        0.0718
     12 N         144.2213  138.7692  162.8414 N.ar    1  UNL1       -0.2339
     13 C         143.2243  138.8012  161.7212 C.ar    1  UNL1        0.0919
     14 C         141.8525  138.8745  162.3236 C.ar    1  UNL1        0.0549
     15 C         140.6447  138.9197  161.4352 C.3     1  UNL1        0.0666
     16 C         140.8087  138.8916  159.9445 C.3     1  UNL1        0.1000
     17 N         142.1805  138.8183  159.3421 N.am    1  UNL1       -0.2735
     18 C         142.3445  138.7903  157.8513 C.2     1  UNL1        0.2250
     19 O         143.6326  138.7187  157.0861 O.2     1  UNL1       -0.2749
     20 C         143.3883  138.7731  160.2305 C.3     1  UNL1        0.1405
     21 C         141.1367  138.8355  156.9630 C.3     1  UNL1        0.0691
     22 C         141.1602  140.3346  157.0074 C.3     1  UNL1        0.0091
     23 C         141.1132  137.3363  156.9186 C.3     1  UNL1        0.0091
     24 C         139.9289  138.8807  156.0746 C.3     1  UNL1        0.0091
     25 C         141.0332  138.9881  164.7813 C.3     1  UNL1        0.0741
     26 C         141.2497  140.1195  163.8205 C.3     1  UNL1        0.0414
     27 C         141.2305  141.5361  164.3132 C.3     1  UNL1        0.0955
     28 C         139.9716  142.3462  164.2186 C.ar    1  UNL1       -0.0022
     29 C         138.9144  141.9754  163.2212 C.ar    1  UNL1       -0.0025
     30 C         137.6555  142.7854  163.1265 C.ar    1  UNL1        0.0020
     31 C         137.4538  143.9663  164.0292 C.ar    1  UNL1        0.0296
     32 C         138.5111  144.3371  165.0265 C.ar    1  UNL1        0.1399
     33 F         138.4739  145.4783  165.9994 F       1  UNL1       -0.2042
     34 C         139.7700  143.5271  165.1213 C.ar    1  UNL1        0.0270
     35 C         144.9001  143.0171  164.6150 C.3     1  UNL1        0.0946
     36 C         143.6603  142.4105  164.0276 C.2     1  UNL1        0.2232
     37 O         143.9515  142.2040  162.5708 O.2     1  UNL1       -0.2751
     38 N         142.4703  142.1427  164.9006 N.am    1  UNL1       -0.3021
     39 H         142.5029  142.3651  165.8591 H       1  UNL1        0.1497
@<TRIPOS>BOND
     1    35    36    1
     2    36    37    2
     3    36    38   am
     4    38    27    1
     5    27    26    1
     6    26    25    1
     7    25     1    1
     8     1     2    1
     9     2     3    1
    10     3     4    1
    11     5     4    1
    12     5     6    1
    13     6     7    1
    14     7     9    1
    15     9    10   ar
    16    10    11    1
    17    10    12   ar
    18    12    13   ar
    19    13    14   ar
    20    14    15    1
    21    15    16    1
    22    16    17    1
    23    17    18   am
    24    18    19    2
    25    18    21    1
    26    21    22    1
    27    21    23    1
    28    21    24    1
    29    17    20    1
    30     7     8    1
    31    27    28    1
    32    28    29   ar
    33    29    30   ar
    34    30    31   ar
    35    31    32   ar
    36    32    33    1
    37    32    34   ar
    38     5     1    1
    39    14     9   ar
    40    34    28   ar
    41     8     2    1
    42    20    13    1
    43    38    39    1
@<TRIPOS>MOLECULE
*****
 39 43 0 0 0
SMALL
GASTEIGER

@<TRIPOS>ATOM
      1 N         139.3604  140.1309  164.6090 N.3     1  UNL1       -0.2750
      2 C         139.7525  138.7761  164.0981 C.3     1  UNL1        0.0594
      3 C         139.2006  137.7478  165.0404 C.3     1  UNL1        0.0174
      4 C         138.4674  138.4669  166.1337 C.3     1  UNL1        0.0174
      5 C         138.5662  139.9397  165.8672 C.3     1  UNL1        0.0594
      6 C         138.8247  141.3367  165.3562 C.3     1  UNL1        0.0386
      7 C         139.6306  141.3714  164.0917 C.3     1  UNL1        0.0890
      8 C         140.0946  140.0911  163.4626 C.3     1  UNL1        0.0386
      9 N         139.9727  142.6863  163.4561 N.ar    1  UNL1       -0.3202
     10 C         139.7861  144.0398  164.0751 C.ar    1  UNL1        0.1201
     11 C         139.2245  144.3161  165.4383 C.3     1  UNL1        0.0718
     12 N         140.2595  145.0686  163.0915 N.ar    1  UNL1       -0.2339
     13 C         140.7388  144.3509  161.8646 C.ar    1  UNL1        0.0919
     14 C         140.5615  142.8786  162.0900 C.ar    1  UNL1        0.0549
     15 C         140.9592  141.9032  161.0221 C.3     1  UNL1        0.0666
     16 C         141.5341  142.4001  159.7288 C.3     1  UNL1        0.1000
     17 N         141.7114  143.8725  159.5035 N.am    1  UNL1       -0.2735
     18 C         142.2863  144.3694  158.2102 C.2     1  UNL1        0.2250
     19 O         142.5306  145.7971  157.8204 O.2     1  UNL1       -0.2749
     20 C         141.3137  144.8479  160.5714 C.3     1  UNL1        0.1405
     21 C         142.6840  143.3940  157.1423 C.3     1  UNL1        0.0691
     22 C         143.9674  143.1215  157.8691 C.3     1  UNL1        0.0091
     23 C         141.4005  143.6665  156.4155 C.3     1  UNL1        0.0091
     24 C         143.0817  142.4185  156.0744 C.3     1  UNL1        0.0091
     25 C         139.7025  141.4457  163.9735 C.3     1  UNL1        0.0741
     26 C         140.8895  142.2257  164.4559 C.3     1  UNL1        0.0414
     27 C         142.1387  141.5084  164.8741 C.3     1  UNL1        0.0955
     28 C         142.3478  141.1433  166.3139 C.ar    1  UNL1       -0.0022
     29 C         142.3397  139.7026  166.7311 C.ar    1  UNL1       -0.0025
     30 C         142.5488  139.3374  168.1709 C.ar    1  UNL1        0.0020
     31 C         142.7660  140.4132  169.1934 C.ar    1  UNL1        0.0296
     32 C         142.7741  141.8540  168.7762 C.ar    1  UNL1        0.1399
     33 F         142.9755  143.0488  169.6605 F       1  UNL1       -0.2042
     34 C         142.5650  142.2191  167.3365 C.ar    1  UNL1        0.0270
     35 C         145.0056  141.8886  162.1563 C.3     1  UNL1        0.0946
     36 C         143.9654  142.2409  163.1780 C.2     1  UNL1        0.2232
     37 O         143.9743  143.7374  163.2780 O.2     1  UNL1       -0.2751
     38 N         143.1789  141.1561  163.8524 N.am    1  UNL1       -0.3021
     39 H         143.3455  140.2130  163.6245 H       1  UNL1        0.1497
@<TRIPOS>BOND
     1    35    36    1
     2    36    37    2
     3    36    38   am
     4    38    27    1
     5    27    26    1
     6    26    25    1
     7    25     1    1
     8     1     2    1
     9     2     3    1
    10     3     4    1
    11     5     4    1
    12     5     6    1
    13     6     7    1
    14     7     9    1
    15     9    10   ar
    16    10    11    1
    17    10    12   ar
    18    12    13   ar
    19    13    14   ar
    20    14    15    1
    21    15    16    1
    22    16    17    1
    23    17    18   am
    24    18    19    2
    25    18    21    1
    26    21    22    1
    27    21    23    1
    28    21    24    1
    29    17    20    1
    30     7     8    1
    31    27    28    1
    32    28    29   ar
    33    29    30   ar
    34    30    31   ar
    35    31    32   ar
    36    32    33    1
    37    32    34   ar
    38     5     1    1
    39    14     9   ar
    40    34    28   ar
    41     8     2    1
    42    20    13    1
    43    38    39    1
@<TRIPOS>MOLECULE
*****
 39 43 0 0 0
SMALL
GASTEIGER

@<TRIPOS>ATOM
      1 N         139.8183  143.7359  163.6645 N.3     1  UNL1       -0.2750
      2 C         138.5288  142.9705  163.6246 C.3     1  UNL1        0.0594
      3 C         137.5937  143.5854  164.6234 C.3     1  UNL1        0.0174
      4 C         138.3052  144.7308  165.2805 C.3     1  UNL1        0.0174
      5 C         139.6800  144.8239  164.6879 C.3     1  UNL1        0.0594
      6 C         140.9755  144.6801  163.9262 C.3     1  UNL1        0.0386
      7 C         140.9666  143.5510  162.9388 C.3     1  UNL1        0.0890
      8 C         139.7432  142.6962  162.7880 C.3     1  UNL1        0.0386
      9 N         142.1811  143.2767  162.1021 N.ar    1  UNL1       -0.3202
     10 C         143.5295  143.9118  162.2704 C.ar    1  UNL1        0.1201
     11 C         143.9003  144.9328  163.3048 C.3     1  UNL1        0.0718
     12 N         144.4420  143.3467  161.2226 N.ar    1  UNL1       -0.2339
     13 C         143.6575  142.3623  160.4068 C.ar    1  UNL1        0.0919
     14 C         142.2602  142.3190  160.9504 C.ar    1  UNL1        0.0549
     15 C         141.2404  141.4132  160.3263 C.3     1  UNL1        0.0666
     16 C         141.6180  140.5506  159.1587 C.3     1  UNL1        0.1000
     17 N         143.0153  140.5939  158.6151 N.am    1  UNL1       -0.2735
     18 C         143.3929  139.7313  157.4474 C.2     1  UNL1        0.2250
     19 O         144.7346  139.6498  156.7818 O.2     1  UNL1       -0.2749
     20 C         144.0351  141.4997  159.2391 C.3     1  UNL1        0.1405
     21 C         142.3731  138.8254  156.8234 C.3     1  UNL1        0.0691
     22 C         142.0152  139.9033  155.8436 C.3     1  UNL1        0.0091
     23 C         142.7309  137.7476  157.8032 C.3     1  UNL1        0.0091
     24 C         141.3532  137.9196  156.1993 C.3     1  UNL1        0.0091
     25 C         141.0326  143.4616  162.8279 C.3     1  UNL1        0.0741
     26 C         142.1842  142.6940  163.4064 C.3     1  UNL1        0.0414
     27 C         141.9277  141.5208  164.3052 C.3     1  UNL1        0.0955
     28 C         141.7876  141.7256  165.7845 C.ar    1  UNL1       -0.0022
     29 C         140.4450  141.5818  166.4377 C.ar    1  UNL1       -0.0025
     30 C         140.3048  141.7866  167.9170 C.ar    1  UNL1        0.0020
     31 C         141.5073  142.1353  168.7431 C.ar    1  UNL1        0.0296
     32 C         142.8499  142.2790  168.0899 C.ar    1  UNL1        0.1399
     33 F         144.1478  142.6208  168.7598 F       1  UNL1       -0.2042
     34 C         142.9901  142.0742  166.6106 C.ar    1  UNL1        0.0270
     35 C         142.8788  138.1290  162.4772 C.3     1  UNL1        0.0946
     36 C         142.9952  139.5072  163.0578 C.2     1  UNL1        0.2232
     37 O         144.4060  139.9465  162.8001 O.2     1  UNL1       -0.2751
     38 N         141.8113  140.1426  163.7245 N.am    1  UNL1       -0.3021
     39 H         140.9578  139.6552  163.7810 H       1  UNL1        0.1497
@<TRIPOS>BOND
     1    35    36    1
     2    36    37    2
     3    36    38   am
     4    38    27    1
     5    27    26    1
     6    26    25    1
     7    25     1    1
     8     1     2    1
     9     2     3    1
    10     3     4    1
    11     5     4    1
    12     5     6    1
    13     6     7    1
    14     7     9    1
    15     9    10   ar
    16    10    11    1
    17    10    12   ar
    18    12    13   ar
    19    13    14   ar
    20    14    15    1
    21    15    16    1
    22    16    17    1
    23    17    18   am
    24    18    19    2
    25    18    21    1
    26    21    22    1
    27    21    23    1
    28    21    24    1
    29    17    20    1
    30     7     8    1
    31    27    28    1
    32    28    29   ar
    33    29    30   ar
    34    30    31   ar
    35    31    32   ar
    36    32    33    1
    37    32    34   ar
    38     5     1    1
    39    14     9   ar
    40    34    28   ar
    41     8     2    1
    42    20    13    1
    43    38    39    1
@<TRIPOS>MOLECULE
*****
 39 43 0 0 0
SMALL
GASTEIGER

@<TRIPOS>ATOM
      1 N         139.0578  139.8161  164.5854 N.3     1  UNL1       -0.2750
      2 C         139.6441  138.4741  164.2607 C.3     1  UNL1        0.0594
      3 C         139.0738  137.4741  165.2224 C.3     1  UNL1        0.0174
      4 C         138.1350  138.1980  166.1414 C.3     1  UNL1        0.0174
      5 C         138.1250  139.6454  165.7477 C.3     1  UNL1        0.0594
      6 C         138.3127  141.0146  165.1399 C.3     1  UNL1        0.0386
      7 C         139.2730  141.0311  163.9878 C.3     1  UNL1        0.0890
      8 C         139.9387  139.7607  163.5482 C.3     1  UNL1        0.0386
      9 N         139.5676  142.3177  163.2752 N.ar    1  UNL1       -0.3202
     10 C         139.1223  143.6846  163.7033 C.ar    1  UNL1        0.1201
     11 C         138.3041  144.0049  164.9190 C.3     1  UNL1        0.0718
     12 N         139.6388  144.6750  162.7021 N.ar    1  UNL1       -0.2339
     13 C         140.4034  143.9202  161.6553 C.ar    1  UNL1        0.0919
     14 C         140.3594  142.4633  162.0095 C.ar    1  UNL1        0.0549
     15 C         141.0459  141.4574  161.1338 C.3     1  UNL1        0.0666
     16 C         141.7764  141.9085  159.9039 C.3     1  UNL1        0.1000
     17 N         141.8204  143.3654  159.5497 N.am    1  UNL1       -0.2735
     18 C         142.5510  143.8165  158.3196 C.2     1  UNL1        0.2250
     19 O         142.6944  145.2235  157.8199 O.2     1  UNL1       -0.2749
     20 C         141.1339  144.3713  160.4254 C.3     1  UNL1        0.1405
     21 C         143.2376  142.8106  157.4439 C.3     1  UNL1        0.0691
     22 C         144.4324  142.8371  158.3503 C.3     1  UNL1        0.0091
     23 C         142.0427  142.7842  156.5375 C.3     1  UNL1        0.0091
     24 C         143.9242  141.8048  156.5682 C.3     1  UNL1        0.0091
     25 C         139.3524  141.1027  163.8729 C.3     1  UNL1        0.0741
     26 C         140.3747  142.0500  164.4273 C.3     1  UNL1        0.0414
     27 C         141.5788  141.5176  165.1462 C.3     1  UNL1        0.0955
     28 C         142.9339  141.6097  164.5098 C.ar    1  UNL1       -0.0022
     29 C         143.9108  140.4813  164.6590 C.ar    1  UNL1       -0.0025
     30 C         145.2660  140.5733  164.0226 C.ar    1  UNL1        0.0020
     31 C         145.6442  141.7938  163.2369 C.ar    1  UNL1        0.0296
     32 C         144.6673  142.9222  163.0876 C.ar    1  UNL1        0.1399
     33 F         144.8786  144.2065  162.3420 F       1  UNL1       -0.2042
     34 C         143.3121  142.8302  163.7240 C.ar    1  UNL1        0.0270
     35 C         140.7083  141.0679  168.9920 C.3     1  UNL1        0.0946
     36 C         140.8594  141.6924  167.6366 C.2     1  UNL1        0.2232
     37 O         140.3542  143.0984  167.7706 O.2     1  UNL1       -0.2751
     38 N         141.4277  140.8931  166.5016 N.am    1  UNL1       -0.3021
     39 H         141.7014  139.9586  166.6463 H       1  UNL1        0.1497
@<TRIPOS>BOND
     1    35    36    1
     2    36    37    2
     3    36    38   am
     4    38    27    1
     5    27    26    1
     6    26    25    1
     7    25     1    1
     8     1     2    1
     9     2     3    1
    10     3     4    1
    11     5     4    1
    12     5     6    1
    13     6     7    1
    14     7     9    1
    15     9    10   ar
    16    10    11    1
    17    10    12   ar
    18    12    13   ar
    19    13    14   ar
    20    14    15    1
    21    15    16    1
    22    16    17    1
    23    17    18   am
    24    18    19    2
    25    18    21    1
    26    21    22    1
    27    21    23    1
    28    21    24    1
    29    17    20    1
    30     7     8    1
    31    27    28    1
    32    28    29   ar
    33    29    30   ar
    34    30    31   ar
    35    31    32   ar
    36    32    33    1
    37    32    34   ar
    38     5     1    1
    39    14     9   ar
    40    34    28   ar
    41     8     2    1
    42    20    13    1
    43    38    39    1
@<TRIPOS>MOLECULE
*****
 39 43 0 0 0
SMALL
GASTEIGER

@<TRIPOS>ATOM
      1 N         142.2500  140.2615  161.7703 N.3     1  UNL1       -0.2750
      2 C         143.4426  141.1447  161.9890 C.3     1  UNL1        0.0594
      3 C         144.1767  141.2634  160.6863 C.3     1  UNL1        0.0174
      4 C         143.4378  140.4536  159.6625 C.3     1  UNL1        0.0174
      5 C         142.2471  139.8343  160.3323 C.3     1  UNL1        0.0594
      6 C         141.1510  139.3541  161.2528 C.3     1  UNL1        0.0386
      7 C         141.2848  139.8615  162.6579 C.3     1  UNL1        0.0890
      8 C         142.4306  140.7568  163.0261 C.3     1  UNL1        0.0386
      9 N         140.2729  139.4735  163.6950 N.ar    1  UNL1       -0.3202
     10 C         139.0273  138.6728  163.4554 C.ar    1  UNL1        0.1201
     11 C         138.5750  138.1193  162.1367 C.3     1  UNL1        0.0718
     12 N         138.3136  138.5226  164.7661 N.ar    1  UNL1       -0.2339
     13 C         139.1179  139.2306  165.8158 C.ar    1  UNL1        0.0919
     14 C         140.3289  139.8183  165.1538 C.ar    1  UNL1        0.0549
     15 C         141.3260  140.5915  165.9648 C.3     1  UNL1        0.0666
     16 C         141.1123  140.7769  167.4379 C.3     1  UNL1        0.1000
     17 N         139.9013  140.1892  168.0998 N.am    1  UNL1       -0.2735
     18 C         139.6876  140.3747  169.5730 C.2     1  UNL1        0.2250
     19 O         138.5408  139.8588  170.3907 O.2     1  UNL1       -0.2749
     20 C         138.9042  139.4161  167.2888 C.3     1  UNL1        0.1405
     21 C         140.6848  141.1479  170.3840 C.3     1  UNL1        0.0691
     22 C         141.5434  139.9231  170.4959 C.3     1  UNL1        0.0091
     23 C         139.8261  142.3726  170.2721 C.3     1  UNL1        0.0091
     24 C         141.6820  141.9210  171.1951 C.3     1  UNL1        0.0091
     25 C         141.2381  139.8736  162.8073 C.3     1  UNL1        0.0741
     26 C         139.9339  140.6094  162.8948 C.3     1  UNL1        0.0414
     27 C         139.8955  142.0948  162.6896 C.3     1  UNL1        0.0955
     28 C         139.8905  142.6603  161.3003 C.ar    1  UNL1       -0.0022
     29 C         140.9496  143.6378  160.8847 C.ar    1  UNL1       -0.0025
     30 C         140.9447  144.2033  159.4954 C.ar    1  UNL1        0.0020
     31 C         139.8807  143.7912  158.5217 C.ar    1  UNL1        0.0296
     32 C         138.8216  142.8137  158.9373 C.ar    1  UNL1        0.1399
     33 F         137.6914  142.2960  158.0979 F       1  UNL1       -0.2042
     34 C         138.8265  142.2482  160.3266 C.ar    1  UNL1        0.0270
     35 C         138.7002  144.9101  165.2186 C.3     1  UNL1        0.0946
     36 C         138.7337  143.9901  164.0343 C.2     1  UNL1        0.2232
     37 O         137.5091  144.3085  163.2287 O.2     1  UNL1       -0.2751
     38 N         139.8620  143.0148  163.8739 N.am    1  UNL1       -0.3021
     39 H         140.5806  142.9785  164.5459 H       1  UNL1        0.1497
@<TRIPOS>BOND
     1    35    36    1
     2    36    37    2
     3    36    38   am
     4    38    27    1
     5    27    26    1
     6    26    25    1
     7    25     1    1
     8     1     2    1
     9     2     3    1
    10     3     4    1
    11     5     4    1
    12     5     6    1
    13     6     7    1
    14     7     9    1
    15     9    10   ar
    16    10    11    1
    17    10    12   ar
    18    12    13   ar
    19    13    14   ar
    20    14    15    1
    21    15    16    1
    22    16    17    1
    23    17    18   am
    24    18    19    2
    25    18    21    1
    26    21    22    1
    27    21    23    1
    28    21    24    1
    29    17    20    1
    30     7     8    1
    31    27    28    1
    32    28    29   ar
    33    29    30   ar
    34    30    31   ar
    35    31    32   ar
    36    32    33    1
    37    32    34   ar
    38     5     1    1
    39    14     9   ar
    40    34    28   ar
    41     8     2    1
    42    20    13    1
    43    38    39    1
@<TRIPOS>MOLECULE
*****
 39 43 0 0 0
SMALL
GASTEIGER

@<TRIPOS>ATOM
      1 N         143.1123  140.4545  165.1495 N.3     1  UNL1       -0.2750
      2 C         142.6654  140.7736  166.5454 C.3     1  UNL1        0.0594
      3 C         142.8188  139.5340  167.3760 C.3     1  UNL1        0.0174
      4 C         143.3605  138.4488  166.4934 C.3     1  UNL1        0.0174
      5 C         143.5419  139.0176  165.1174 C.3     1  UNL1        0.0594
      6 C         143.6183  139.8448  163.8567 C.3     1  UNL1        0.0386
      7 C         143.1566  141.2599  164.0409 C.3     1  UNL1        0.0890
      8 C         142.6801  141.7244  165.3853 C.3     1  UNL1        0.0386
      9 N         143.1713  142.2108  162.8808 N.ar    1  UNL1       -0.3202
     10 C         143.0636  143.7046  162.9638 C.ar    1  UNL1        0.1201
     11 C         142.9224  144.5099  164.2214 C.3     1  UNL1        0.0718
     12 N         143.1220  144.2517  161.5684 N.ar    1  UNL1       -0.2339
     13 C         143.2658  143.0960  160.6230 C.ar    1  UNL1        0.0919
     14 C         143.2962  141.8346  161.4341 C.ar    1  UNL1        0.0549
     15 C         143.4338  140.5065  160.7507 C.3     1  UNL1        0.0666
     16 C         143.5409  140.4398  159.2560 C.3     1  UNL1        0.1000
     17 N         143.5105  141.7012  158.4448 N.am    1  UNL1       -0.2735
     18 C         143.6176  141.6344  156.9501 C.2     1  UNL1        0.2250
     19 O         143.6046  142.7883  155.9917 O.2     1  UNL1       -0.2749
     20 C         143.3729  143.0293  159.1283 C.3     1  UNL1        0.1405
     21 C         143.7552  140.3063  156.2666 C.3     1  UNL1        0.0691
     22 C         142.2629  140.1545  156.2613 C.3     1  UNL1        0.0091
     23 C         145.2474  140.4581  156.2720 C.3     1  UNL1        0.0091
     24 C         143.8927  138.9782  155.5831 C.3     1  UNL1        0.0091
     25 C         143.1270  141.4053  163.9895 C.3     1  UNL1        0.0741
     26 C         141.9536  141.4693  163.0572 C.3     1  UNL1        0.0414
     27 C         140.5578  141.4626  163.6067 C.3     1  UNL1        0.0955
     28 C         139.9391  140.1761  164.0671 C.ar    1  UNL1       -0.0022
     29 C         140.1165  138.9263  163.2568 C.ar    1  UNL1       -0.0025
     30 C         139.4978  137.6398  163.7172 C.ar    1  UNL1        0.0020
     31 C         138.7017  137.6031  164.9880 C.ar    1  UNL1        0.0296
     32 C         138.5243  138.8528  165.7983 C.ar    1  UNL1        0.1399
     33 F         137.7651  138.9948  167.0842 F       1  UNL1       -0.2042
     34 C         139.1430  140.1394  165.3379 C.ar    1  UNL1        0.0270
     35 C         137.6694  144.1384  163.1092 C.3     1  UNL1        0.0946
     36 C         138.4465  142.8584  163.0203 C.2     1  UNL1        0.2232
     37 O         137.6108  141.9239  162.1968 O.2     1  UNL1       -0.2751
     38 N         139.7808  142.7426  163.6956 N.am    1  UNL1       -0.3021
     39 H         140.1466  143.5066  164.1973 H       1  UNL1        0.1497
@<TRIPOS>BOND
     1    35    36    1
     2    36    37    2
     3    36    38   am
     4    38    27    1
     5    27    26    1
     6    26    25    1
     7    25     1    1
     8     1     2    1
     9     2     3    1
    10     3     4    1
    11     5     4    1
    12     5     6    1
    13     6     7    1
    14     7     9    1
    15     9    10   ar
    16    10    11    1
    17    10    12   ar
    18    12    13   ar
    19    13    14   ar
    20    14    15    1
    21    15    16    1
    22    16    17    1
    23    17    18   am
    24    18    19    2
    25    18    21    1
    26    21    22    1
    27    21    23    1
    28    21    24    1
    29    17    20    1
    30     7     8    1
    31    27    28    1
    32    28    29   ar
    33    29    30   ar
    34    30    31   ar
    35    31    32   ar
    36    32    33    1
    37    32    34   ar
    38     5     1    1
    39    14     9   ar
    40    34    28   ar
    41     8     2    1
    42    20    13    1
    43    38    39    1
@<TRIPOS>MOLECULE
*****
 39 43 0 0 0
SMALL
GASTEIGER

@<TRIPOS>ATOM
      1 N         140.0548  143.2301  161.0833 N.3     1  UNL1       -0.2750
      2 C         141.1482  144.2571  161.0809 C.3     1  UNL1        0.0594
      3 C         141.1406  144.9391  159.7449 C.3     1  UNL1        0.0174
      4 C         140.0426  144.3336  158.9216 C.3     1  UNL1        0.0174
      5 C         139.3715  143.2775  159.7487 C.3     1  UNL1        0.0594
      6 C         138.8975  142.2947  160.7921 C.3     1  UNL1        0.0386
      7 C         139.6739  142.3620  162.0737 C.3     1  UNL1        0.0890
      8 C         140.7993  143.3433  162.2181 C.3     1  UNL1        0.0386
      9 N         139.3251  141.4483  163.2110 N.ar    1  UNL1       -0.3202
     10 C         138.4232  140.2520  163.1360 C.ar    1  UNL1        0.1201
     11 C         137.7118  139.7595  161.9107 C.3     1  UNL1        0.0718
     12 N         138.3576  139.6348  164.5016 N.ar    1  UNL1       -0.2339
     13 C         139.2189  140.4495  165.4204 C.ar    1  UNL1        0.0919
     14 C         139.8169  141.5703  164.6228 C.ar    1  UNL1        0.0549
     15 C         140.7319  142.5573  165.2851 C.3     1  UNL1        0.0666
     16 C         141.0490  142.4234  166.7450 C.3     1  UNL1        0.1000
     17 N         140.4511  141.3025  167.5427 N.am    1  UNL1       -0.2735
     18 C         140.7682  141.1687  169.0027 C.2     1  UNL1        0.2250
     19 O         140.2614  140.1163  169.9437 O.2     1  UNL1       -0.2749
     20 C         139.5360  140.3156  166.8804 C.3     1  UNL1        0.1405
     21 C         141.6832  142.1556  169.6650 C.3     1  UNL1        0.0691
     22 C         140.5160  143.0594  169.9309 C.3     1  UNL1        0.0091
     23 C         142.8505  141.2519  169.3990 C.3     1  UNL1        0.0091
     24 C         142.5983  143.1426  170.3273 C.3     1  UNL1        0.0091
     25 C         139.7059  142.3164  162.2205 C.3     1  UNL1        0.0741
     26 C         140.2626  140.9241  162.2618 C.3     1  UNL1        0.0414
     27 C         141.6360  140.6492  161.7250 C.3     1  UNL1        0.0955
     28 C         142.7670  140.3650  162.6684 C.ar    1  UNL1       -0.0022
     29 C         142.6267  139.2902  163.7053 C.ar    1  UNL1       -0.0025
     30 C         143.7577  139.0060  164.6487 C.ar    1  UNL1        0.0020
     31 C         145.0290  139.7965  164.5552 C.ar    1  UNL1        0.0296
     32 C         145.1693  140.8713  163.5183 C.ar    1  UNL1        0.1399
     33 F         146.3615  141.7516  163.2861 F       1  UNL1       -0.2042
     34 C         144.0384  141.1555  162.5749 C.ar    1  UNL1        0.0270
     35 C         141.3894  139.7031  157.8787 C.3     1  UNL1        0.0946
     36 C         141.1470  139.6938  159.3589 C.2     1  UNL1        0.2232
     37 O         140.1340  138.6154  159.6052 O.2     1  UNL1       -0.2751
     38 N         141.8784  140.6584  160.2447 N.am    1  UNL1       -0.3021
     39 H         142.5175  141.2976  159.8546 H       1  UNL1        0.1497
@<TRIPOS>BOND
     1    35    36    1
     2    36    37    2
     3    36    38   am
     4    38    27    1
     5    27    26    1
     6    26    25    1
     7    25     1    1
     8     1     2    1
     9     2     3    1
    10     3     4    1
    11     5     4    1
    12     5     6    1
    13     6     7    1
    14     7     9    1
    15     9    10   ar
    16    10    11    1
    17    10    12   ar
    18    12    13   ar
    19    13    14   ar
    20    14    15    1
    21    15    16    1
    22    16    17    1
    23    17    18   am
    24    18    19    2
    25    18    21    1
    26    21    22    1
    27    21    23    1
    28    21    24    1
    29    17    20    1
    30     7     8    1
    31    27    28    1
    32    28    29   ar
    33    29    30   ar
    34    30    31   ar
    35    31    32   ar
    36    32    33    1
    37    32    34   ar
    38     5     1    1
    39    14     9   ar
    40    34    28   ar
    41     8     2    1
    42    20    13    1
    43    38    39    1
