@<TRIPOS>MOLECULE
*****
 77 79 0 0 0
SMALL
GASTEIGER

@<TRIPOS>ATOM
      1 C         145.4512  154.4724  155.0998 C.3     1  UNL1        0.0062
      2 C         145.0577  153.4871  156.1601 C.3     1  UNL1        0.0673
      3 C         145.7540  154.2097  157.2751 C.3     1  UNL1        0.1178
      4 O         146.2689  155.3210  156.4091 O.3     1  UNL1       -0.3840
      5 C         146.3605  154.7385  158.5409 C.3     1  UNL1        0.0490
      6 C         146.9812  155.9420  157.8957 C.3     1  UNL1        0.0072
      7 C         146.8588  155.0576  159.9192 C.2     1  UNL1       -0.0240
      8 C         147.2338  155.1572  161.3681 C.2     1  UNL1       -0.0045
      9 C         147.4741  155.0343  162.8437 C.2     1  UNL1       -0.0003
     10 C         147.5724  154.6927  164.3009 C.2     1  UNL1       -0.0000
     11 C         147.5256  154.1426  165.6957 C.2     1  UNL1       -0.0000
     12 C         147.3352  153.4009  166.9855 C.2     1  UNL1       -0.0000
     13 C         147.0071  152.4900  168.1313 C.2     1  UNL1        0.0000
     14 C         146.5510  151.4377  169.0980 C.2     1  UNL1        0.0000
     15 C         145.9811  150.2760  169.8565 C.2     1  UNL1       -0.0000
     16 C         145.3144  149.0400  170.3837 C.2     1  UNL1       -0.0000
     17 C         144.5713  147.7674  170.6635 C.2     1  UNL1       -0.0000
     18 C         143.7744  146.4968  170.6874 C.2     1  UNL1       -0.0003
     19 C         142.9479  145.2669  170.4548 C.2     1  UNL1       -0.0022
     20 C         142.1168  144.1149  169.9726 C.2     1  UNL1        0.0030
     21 C         141.3066  143.0760  169.2556 C.3     1  UNL1        0.1423
     22 C         140.5417  142.1816  168.3255 C.3     1  UNL1        0.0643
     23 C         139.7010  141.3483  166.8650 C.3     1  UNL1        0.1278
     24 O         139.5311  141.5815  165.3931 O.3     1  UNL1       -0.3363
     25 C         138.7405  140.6112  164.5664 C.3     1  UNL1        0.1881
     26 O         138.7596  140.9241  163.7380 O.3     1  UNL1       -0.3634
     27 C         138.3655  140.5115  163.1175 C.3     1  UNL1        0.0853
     28 C         138.1252  140.6345  161.6419 C.3     1  UNL1        0.1179
     29 O         137.3104  139.3794  161.5372 O.3     1  UNL1       -0.3842
     30 C         138.0270  140.9761  160.1847 C.3     1  UNL1        0.0611
     31 C         138.0737  141.5262  158.7899 C.3     1  UNL1        0.1396
     32 O         137.2500  140.4266  158.1881 O.3     1  UNL1       -0.3819
     33 C         138.2641  142.2679  157.5001 C.3     1  UNL1        0.1373
     34 O         137.4735  141.2975  156.6734 O.3     1  UNL1       -0.3820
     35 C         138.5923  143.1787  156.3544 C.3     1  UNL1        0.0342
     36 C         139.0483  144.2311  155.3876 C.3     1  UNL1        0.0319
     37 C         139.6183  145.3929  154.6291 C.3     1  UNL1        0.1130
     38 O         139.0638  144.9673  153.3020 O.3     1  UNL1       -0.3844
     39 C         140.2849  146.6288  154.1020 C.3     1  UNL1        0.0590
     40 C         141.0280  147.9014  153.8221 C.3     1  UNL1        0.1241
     41 O         140.7192  147.9131  152.3543 O.3     1  UNL1       -0.3838
     42 C         141.8249  149.1720  153.7982 C.3     1  UNL1        0.1387
     43 C         142.6514  150.4019  154.0308 C.2     1  UNL1        0.3194
     44 O         142.6256  150.8495  152.5994 O.2     1  UNL1       -0.2500
     45 O         143.4825  151.5539  154.5130 O.3     1  UNL1       -0.4521
     46 C         144.2927  152.5927  155.2300 C.3     1  UNL1        0.1712
     47 C         144.5530  153.4222  154.0076 C.3     1  UNL1        0.0474
     48 C         138.1198  139.4077  165.2117 C.3     1  UNL1        0.0857
     49 C         138.2897  139.1745  166.6837 C.3     1  UNL1        0.1228
     50 O         137.6690  137.9711  167.3289 O.3     1  UNL1       -0.3838
     51 C         139.0803  140.1448  167.5103 C.3     1  UNL1        0.0908
     52 H         145.9812  155.1775  155.4939 H       1  UNL1        0.2104
     53 H         139.2736  141.7463  163.7147 H       1  UNL1        0.2128
     54 H         137.2383  138.9667  162.4120 H       1  UNL1        0.2103
     55 H         136.9998  139.7943  158.8798 H       1  UNL1        0.2104
     56 H         137.4617  141.5941  155.7499 H       1  UNL1        0.2104
     57 H         138.5658  144.1418  153.4093 H       1  UNL1        0.2103
     58 H         141.1239  148.6939  151.9450 H       1  UNL1        0.2104
     59 H         137.9115  137.1754  166.8299 H       1  UNL1        0.2104
     60 C         139.2502  139.9117  168.9824 C.2     1  UNL1        0.0547
     61 O         140.0063  139.2288  170.0833 O.co2   1  UNL1       -0.5490
     62 O         138.5375  140.4084  170.2051 O.co2   1  UNL1       -0.5490
     63 O         141.0463  142.2466  170.4780 O.3     1  UNL1       -0.3266
     64 C         141.9126  141.0591  170.7770 C.3     1  UNL1        0.2647
     65 O         142.1984  140.0501  169.7045 O.3     1  UNL1       -0.3286
     66 C         143.0647  138.8626  170.0036 C.3     1  UNL1        0.1460
     67 C         143.3504  137.8536  168.9311 C.3     1  UNL1        0.0348
     68 C         143.6452  138.6841  171.3751 C.3     1  UNL1        0.1541
     69 O         144.5114  137.4966  171.6741 O.3     1  UNL1       -0.3805
     70 C         143.3594  139.6931  172.4476 C.3     1  UNL1        0.1127
     71 N         143.9399  139.5146  173.8191 N.3     1  UNL1       -0.3181
     72 C         142.4931  140.8805  172.1486 C.3     1  UNL1        0.1835
     73 O         142.2074  141.8895  173.2211 O.3     1  UNL1       -0.3783
     74 H         144.5944  136.9483  170.8783 H       1  UNL1        0.2105
     75 H         143.6451  140.2872  174.4163 H       1  UNL1        0.1190
     76 H         144.9580  139.5013  173.7583 H       1  UNL1        0.1190
     77 H         141.6365  142.5879  172.8643 H       1  UNL1        0.2106
@<TRIPOS>UNITY_ATOM_ATTR
61 1
charge -1
@<TRIPOS>BOND
     1     2     1    1
     2     2     3    1
     3     3     4    1
     4     3     5    1
     5     5     6    1
     6     5     7    1
     7     7     8    2
     8     8     9    1
     9     9    10    2
    10    10    11    1
    11    11    12    2
    12    12    13    1
    13    13    14    2
    14    14    15    1
    15    15    16    2
    16    16    17    1
    17    17    18    2
    18    18    19    1
    19    19    20    2
    20    20    21    1
    21    21    63    1
    22    64    63    1
    23    64    65    1
    24    65    66    1
    25    66    67    1
    26    66    68    1
    27    68    69    1
    28    68    70    1
    29    70    71    1
    30    70    72    1
    31    72    73    1
    32    21    22    1
    33    23    22    1
    34    23    24    1
    35    24    25    1
    36    25    26    1
    37    25    27    1
    38    27    28    1
    39    28    29    1
    40    28    30    1
    41    30    31    1
    42    31    32    1
    43    31    33    1
    44    33    34    1
    45    33    35    1
    46    35    36    1
    47    36    37    1
    48    37    38    1
    49    37    39    1
    50    39    40    1
    51    40    41    1
    52    40    42    1
    53    42    43    1
    54    43    44    2
    55    43    45    1
    56    45    46    1
    57    46    47    1
    58    25    48    1
    59    48    49    1
    60    49    50    1
    61    49    51    1
    62    51    60    1
    63    60    61   ar
    64    60    62   ar
    65    46     2    1
    66    72    64    1
    67    51    23    1
    68     4    52    1
    69    69    74    1
    70    71    75    1
    71    71    76    1
    72    73    77    1
    73    26    53    1
    74    29    54    1
    75    32    55    1
    76    34    56    1
    77    38    57    1
    78    41    58    1
    79    50    59    1
