@<TRIPOS>MOLECULE
*****
 32 36 0 0 0
SMALL
GASTEIGER

@<TRIPOS>ATOM
      1 C         138.2291  141.2769  158.2278 C.ar    1  UNL1        0.1098
      2 C         138.4729  142.2785  159.3175 C.ar    1  UNL1        0.0891
      3 N         139.5816  142.0590  160.3036 N.ar    1  UNL1       -0.2900
      4 C         140.4467  140.8379  160.2000 C.ar    1  UNL1        0.1507
      5 N         141.5555  140.6185  161.1861 N.ar    1  UNL1       -0.2263
      6 C         142.4205  139.3975  161.0825 C.ar    1  UNL1        0.1005
      7 C         142.1768  138.3959  159.9928 C.ar    1  UNL1        0.0209
      8 C         141.0680  138.6153  159.0067 C.ar    1  UNL1        0.0078
      9 C         140.2030  139.8363  159.1103 C.ar    1  UNL1        0.0736
     10 C         139.0941  140.0558  158.1242 C.ar    1  UNL1        0.2043
     11 O         138.8504  139.0542  157.0345 O.2     1  UNL1       -0.2863
     12 C         139.8254  143.0606  161.3932 C.ar    1  UNL1        0.0660
     13 C         139.9754  144.5144  161.0558 C.ar    1  UNL1        0.0176
     14 C         140.2191  145.5160  162.1455 C.ar    1  UNL1        0.0021
     15 C         140.3129  145.0638  163.5726 C.ar    1  UNL1        0.0083
     16 C         140.1629  143.6099  163.9101 C.ar    1  UNL1        0.0434
     17 C         139.9191  142.6083  162.8204 C.ar    1  UNL1        0.0258
     18 C         140.2566  143.1577  165.3372 C.1     1  UNL1       -0.0597
     19 C         140.3504  142.7055  166.7643 C.1     1  UNL1       -0.0582
     20 C         140.4441  142.2533  168.1915 C.ar    1  UNL1        0.0611
     21 C         140.3117  140.7974  168.5271 C.ar    1  UNL1        0.0114
     22 C         140.4054  140.3451  169.9542 C.ar    1  UNL1        0.0213
     23 C         140.6316  141.3489  171.0458 C.ar    1  UNL1        0.0989
     24 N         140.7640  142.8048  170.7101 N.ar    1  UNL1       -0.2417
     25 C         140.6703  143.2570  169.2829 C.ar    1  UNL1        0.1071
     26 O         137.0176  142.7997  156.5063 O.2     1  UNL1       -0.2700
     27 C         137.1203  141.4964  157.2417 C.2     1  UNL1        0.2504
     28 N         136.1141  140.4125  156.9910 N.am    1  UNL1       -0.3024
     29 H         136.1815  139.5571  157.4736 H       1  UNL1        0.1497
     30 C         135.0053  140.6319  156.0049 C.3     1  UNL1        0.0720
     31 C         133.5741  140.9746  155.7144 C.3     1  UNL1        0.0213
     32 C         134.5159  140.6693  154.5875 C.3     1  UNL1        0.0213
@<TRIPOS>BOND
     1    26    27    2
     2    27    28   am
     3    28    30    1
     4    30    31    1
     5    31    32    1
     6    27     1    1
     7     1     2   ar
     8     2     3   ar
     9     3    12    1
    10    12    13   ar
    11    13    14   ar
    12    14    15   ar
    13    15    16   ar
    14    16    18    1
    15    18    19    3
    16    19    20    1
    17    20    21   ar
    18    21    22   ar
    19    22    23   ar
    20    23    24   ar
    21    24    25   ar
    22    16    17   ar
    23     3     4   ar
    24     4     5   ar
    25     5     6   ar
    26     6     7   ar
    27     7     8   ar
    28     8     9   ar
    29     9    10   ar
    30    10    11    2
    31    32    30    1
    32    10     1   ar
    33    17    12   ar
    34     9     4   ar
    35    25    20   ar
    36    28    29    1
@<TRIPOS>MOLECULE
*****
 32 36 0 0 0
SMALL
GASTEIGER

@<TRIPOS>ATOM
      1 C         141.9333  140.2495  158.7355 C.ar    1  UNL1        0.1098
      2 C         141.1136  140.3222  159.9896 C.ar    1  UNL1        0.0891
      3 N         140.4741  141.6175  160.3936 N.ar    1  UNL1       -0.2900
      4 C         140.6541  142.8401  159.5433 C.ar    1  UNL1        0.1507
      5 N         140.0146  144.1354  159.9472 N.ar    1  UNL1       -0.2263
      6 C         140.1947  145.3579  159.0970 C.ar    1  UNL1        0.1005
      7 C         141.0143  145.2852  157.8429 C.ar    1  UNL1        0.0209
      8 C         141.6539  143.9899  157.4389 C.ar    1  UNL1        0.0078
      9 C         141.4738  142.7674  158.2892 C.ar    1  UNL1        0.0736
     10 C         142.1133  141.4720  157.8853 C.ar    1  UNL1        0.2043
     11 O         142.9330  141.3993  156.6311 O.2     1  UNL1       -0.2863
     12 C         139.6544  141.6902  161.6477 C.ar    1  UNL1        0.0660
     13 C         138.1613  141.5666  161.5761 C.ar    1  UNL1        0.0176
     14 C         137.3416  141.6394  162.8302 C.ar    1  UNL1        0.0021
     15 C         138.0151  141.8357  164.1560 C.ar    1  UNL1        0.0083
     16 C         139.5083  141.9594  164.2277 C.ar    1  UNL1        0.0434
     17 C         140.3280  141.8866  162.9736 C.ar    1  UNL1        0.0258
     18 C         140.1818  142.1557  165.5535 C.1     1  UNL1       -0.0597
     19 C         140.8553  142.3521  166.8793 C.1     1  UNL1       -0.0582
     20 C         141.5288  142.5485  168.2052 C.ar    1  UNL1        0.0611
     21 C         142.9714  142.1745  168.3763 C.ar    1  UNL1        0.0114
     22 C         143.6449  142.3708  169.7021 C.ar    1  UNL1        0.0213
     23 C         142.8758  142.9412  170.8569 C.ar    1  UNL1        0.0989
     24 N         141.4333  143.3152  170.6857 N.ar    1  UNL1       -0.2417
     25 C         140.7598  143.1188  169.3598 C.ar    1  UNL1        0.1071
     26 O         143.4265  138.2023  159.3093 O.2     1  UNL1       -0.2700
     27 C         142.5728  138.9541  158.3316 C.2     1  UNL1        0.2504
     28 N         142.3586  138.4107  156.9500 N.am    1  UNL1       -0.3024
     29 H         141.7983  138.9042  156.3083 H       1  UNL1        0.1497
     30 C         142.9982  137.1154  156.5461 C.3     1  UNL1        0.0720
     31 C         143.1375  135.6304  156.7049 C.3     1  UNL1        0.0213
     32 C         143.9665  136.3569  155.6876 C.3     1  UNL1        0.0213
@<TRIPOS>BOND
     1    26    27    2
     2    27    28   am
     3    28    30    1
     4    30    31    1
     5    31    32    1
     6    27     1    1
     7     1     2   ar
     8     2     3   ar
     9     3    12    1
    10    12    13   ar
    11    13    14   ar
    12    14    15   ar
    13    15    16   ar
    14    16    18    1
    15    18    19    3
    16    19    20    1
    17    20    21   ar
    18    21    22   ar
    19    22    23   ar
    20    23    24   ar
    21    24    25   ar
    22    16    17   ar
    23     3     4   ar
    24     4     5   ar
    25     5     6   ar
    26     6     7   ar
    27     7     8   ar
    28     8     9   ar
    29     9    10   ar
    30    10    11    2
    31    32    30    1
    32    10     1   ar
    33    17    12   ar
    34     9     4   ar
    35    25    20   ar
    36    28    29    1
@<TRIPOS>MOLECULE
*****
 32 36 0 0 0
SMALL
GASTEIGER

@<TRIPOS>ATOM
      1 C         138.0693  141.3516  158.1837 C.ar    1  UNL1        0.1098
      2 C         138.1282  140.4413  159.3745 C.ar    1  UNL1        0.0891
      3 N         138.8577  140.8720  160.6123 N.ar    1  UNL1       -0.2900
      4 C         139.5284  142.2129  160.6594 C.ar    1  UNL1        0.1507
      5 N         140.2579  142.6435  161.8972 N.ar    1  UNL1       -0.2263
      6 C         140.9286  143.9844  161.9443 C.ar    1  UNL1        0.1005
      7 C         140.8697  144.8946  160.7535 C.ar    1  UNL1        0.0209
      8 C         140.1402  144.4640  159.5156 C.ar    1  UNL1        0.0078
      9 C         139.4695  143.1231  159.4686 C.ar    1  UNL1        0.0736
     10 C         138.7400  142.6924  158.2307 C.ar    1  UNL1        0.2043
     11 O         138.6811  143.6026  157.0399 O.2     1  UNL1       -0.2863
     12 C         138.9166  139.9618  161.8031 C.ar    1  UNL1        0.0660
     13 C         138.7028  138.4871  161.6312 C.ar    1  UNL1        0.0176
     14 C         138.7616  137.5769  162.8221 C.ar    1  UNL1        0.0021
     15 C         139.0343  138.1413  164.1848 C.ar    1  UNL1        0.0083
     16 C         139.2481  139.6161  164.3567 C.ar    1  UNL1        0.0434
     17 C         139.1893  140.5263  163.1659 C.ar    1  UNL1        0.0258
     18 C         139.5208  140.1805  165.7194 C.1     1  UNL1       -0.0597
     19 C         139.7935  140.7449  167.0821 C.1     1  UNL1       -0.0582
     20 C         140.0661  141.3094  168.4449 C.ar    1  UNL1        0.0611
     21 C         140.5063  142.7358  168.5915 C.ar    1  UNL1        0.0114
     22 C         140.7789  143.3003  169.9542 C.ar    1  UNL1        0.0213
     23 C         140.6115  142.4383  171.1704 C.ar    1  UNL1        0.0989
     24 N         140.1713  141.0118  171.0238 N.ar    1  UNL1       -0.2417
     25 C         139.8987  140.4474  169.6610 C.ar    1  UNL1        0.1071
     26 O         137.7194  139.6432  156.2577 O.2     1  UNL1       -0.2700
     27 C         137.3397  140.9208  156.9458 C.2     1  UNL1        0.2504
     28 N         136.2305  141.7678  156.3960 N.am    1  UNL1       -0.3024
     29 H         135.9813  142.6064  156.8476 H       1  UNL1        0.1497
     30 C         135.5010  141.3372  155.1582 C.3     1  UNL1        0.0720
     31 C         134.9644  140.2460  154.2800 C.3     1  UNL1        0.0213
     32 C         134.7739  141.6825  153.8925 C.3     1  UNL1        0.0213
@<TRIPOS>BOND
     1    26    27    2
     2    27    28   am
     3    28    30    1
     4    30    31    1
     5    31    32    1
     6    27     1    1
     7     1     2   ar
     8     2     3   ar
     9     3    12    1
    10    12    13   ar
    11    13    14   ar
    12    14    15   ar
    13    15    16   ar
    14    16    18    1
    15    18    19    3
    16    19    20    1
    17    20    21   ar
    18    21    22   ar
    19    22    23   ar
    20    23    24   ar
    21    24    25   ar
    22    16    17   ar
    23     3     4   ar
    24     4     5   ar
    25     5     6   ar
    26     6     7   ar
    27     7     8   ar
    28     8     9   ar
    29     9    10   ar
    30    10    11    2
    31    32    30    1
    32    10     1   ar
    33    17    12   ar
    34     9     4   ar
    35    25    20   ar
    36    28    29    1
@<TRIPOS>MOLECULE
*****
 32 36 0 0 0
SMALL
GASTEIGER

@<TRIPOS>ATOM
      1 C         141.3029  143.3967  158.8101 C.ar    1  UNL1        0.1098
      2 C         142.2052  143.3572  160.0078 C.ar    1  UNL1        0.0891
      3 N         142.3206  142.1005  160.8186 N.ar    1  UNL1       -0.2900
      4 C         141.5338  140.8834  160.4319 C.ar    1  UNL1        0.1507
      5 N         141.6492  139.6268  161.2427 N.ar    1  UNL1       -0.2263
      6 C         140.8624  138.4097  160.8559 C.ar    1  UNL1        0.1005
      7 C         139.9601  138.4493  159.6583 C.ar    1  UNL1        0.0209
      8 C         139.8447  139.7059  158.8474 C.ar    1  UNL1        0.0078
      9 C         140.6315  140.9229  159.2342 C.ar    1  UNL1        0.0736
     10 C         140.5161  142.1797  158.4233 C.ar    1  UNL1        0.2043
     11 O         139.6138  142.2192  157.2257 O.2     1  UNL1       -0.2863
     12 C         143.2229  142.0610  162.0163 C.ar    1  UNL1        0.0660
     13 C         144.7099  141.9893  161.8330 C.ar    1  UNL1        0.0176
     14 C         145.6121  141.9498  163.0306 C.ar    1  UNL1        0.0021
     15 C         145.0274  141.9819  164.4116 C.ar    1  UNL1        0.0083
     16 C         143.5403  142.0535  164.5949 C.ar    1  UNL1        0.0434
     17 C         142.6381  142.0931  163.3973 C.ar    1  UNL1        0.0258
     18 C         142.9556  142.0856  165.9758 C.1     1  UNL1       -0.0597
     19 C         142.3708  142.1177  167.3568 C.1     1  UNL1       -0.0582
     20 C         141.7860  142.1498  168.7377 C.ar    1  UNL1        0.0611
     21 C         140.5474  142.9512  169.0092 C.ar    1  UNL1        0.0114
     22 C         139.9626  142.9834  170.3901 C.ar    1  UNL1        0.0213
     23 C         140.6164  142.2141  171.4996 C.ar    1  UNL1        0.0989
     24 N         141.8550  141.4128  171.2281 N.ar    1  UNL1       -0.2417
     25 C         142.4398  141.3806  169.8472 C.ar    1  UNL1        0.1071
     26 O         142.3703  145.5646  157.8556 O.2     1  UNL1       -0.2700
     27 C         141.1875  144.6534  157.9993 C.2     1  UNL1        0.2504
     28 N         139.8892  144.9989  157.3320 N.am    1  UNL1       -0.3024
     29 H         139.1129  144.4008  157.4263 H       1  UNL1        0.1497
     30 C         139.7737  146.2555  156.5212 C.3     1  UNL1        0.0720
     31 C         140.2495  147.1216  155.3927 C.3     1  UNL1        0.0213
     32 C         139.0980  147.5659  156.2452 C.3     1  UNL1        0.0213
@<TRIPOS>BOND
     1    26    27    2
     2    27    28   am
     3    28    30    1
     4    30    31    1
     5    31    32    1
     6    27     1    1
     7     1     2   ar
     8     2     3   ar
     9     3    12    1
    10    12    13   ar
    11    13    14   ar
    12    14    15   ar
    13    15    16   ar
    14    16    18    1
    15    18    19    3
    16    19    20    1
    17    20    21   ar
    18    21    22   ar
    19    22    23   ar
    20    23    24   ar
    21    24    25   ar
    22    16    17   ar
    23     3     4   ar
    24     4     5   ar
    25     5     6   ar
    26     6     7   ar
    27     7     8   ar
    28     8     9   ar
    29     9    10   ar
    30    10    11    2
    31    32    30    1
    32    10     1   ar
    33    17    12   ar
    34     9     4   ar
    35    25    20   ar
    36    28    29    1
@<TRIPOS>MOLECULE
*****
 32 36 0 0 0
SMALL
GASTEIGER

@<TRIPOS>ATOM
      1 C         143.8051  132.4026  156.6056 C.ar    1  UNL1        0.1098
      2 C         143.7868  133.8696  156.9177 C.ar    1  UNL1        0.0891
      3 N         143.2438  134.8432  155.9141 N.ar    1  UNL1       -0.2900
      4 C         142.7191  134.3498  154.5983 C.ar    1  UNL1        0.1507
      5 N         142.1761  135.3234  153.5947 N.ar    1  UNL1       -0.2263
      6 C         141.6515  134.8299  152.2790 C.ar    1  UNL1        0.1005
      7 C         141.6698  133.3628  151.9669 C.ar    1  UNL1        0.0209
      8 C         142.2128  132.3893  152.9705 C.ar    1  UNL1        0.0078
      9 C         142.7375  132.8827  154.2862 C.ar    1  UNL1        0.0736
     10 C         143.2805  131.9091  155.2899 C.ar    1  UNL1        0.2043
     11 O         143.2988  130.4421  154.9777 O.2     1  UNL1       -0.2863
     12 C         143.2255  136.3103  156.2263 C.ar    1  UNL1        0.0660
     13 C         144.1371  137.2455  155.4886 C.ar    1  UNL1        0.0176
     14 C         144.1188  138.7125  155.8007 C.ar    1  UNL1        0.0021
     15 C         143.1888  139.2444  156.8506 C.ar    1  UNL1        0.0083
     16 C         142.2771  138.3091  157.5883 C.ar    1  UNL1        0.0434
     17 C         142.2954  136.8421  157.2762 C.ar    1  UNL1        0.0258
     18 C         141.3471  138.8410  158.6382 C.1     1  UNL1       -0.0597
     19 C         140.4171  139.3728  159.6881 C.1     1  UNL1       -0.0582
     20 C         139.4871  139.9047  160.7380 C.ar    1  UNL1        0.0611
     21 C         139.4236  139.2488  162.0855 C.ar    1  UNL1        0.0114
     22 C         138.4937  139.7806  163.1354 C.ar    1  UNL1        0.0213
     23 C         137.6272  140.9684  162.8378 C.ar    1  UNL1        0.0989
     24 N         137.6908  141.6244  161.4903 N.ar    1  UNL1       -0.2417
     25 C         138.6208  141.0925  160.4404 C.ar    1  UNL1        0.1071
     26 O         145.6325  131.7271  158.3245 O.2     1  UNL1       -0.2700
     27 C         144.3482  131.4290  157.6093 C.2     1  UNL1        0.2504
     28 N         143.6068  130.1573  157.8977 N.am    1  UNL1       -0.3024
     29 H         142.7638  129.9616  157.4282 H       1  UNL1        0.1497
     30 C         144.1498  129.1837  158.9013 C.3     1  UNL1        0.0720
     31 C         145.2795  128.3403  159.4134 C.3     1  UNL1        0.0213
     32 C         143.9605  128.3408  160.1275 C.3     1  UNL1        0.0213
@<TRIPOS>BOND
     1    26    27    2
     2    27    28   am
     3    28    30    1
     4    30    31    1
     5    31    32    1
     6    27     1    1
     7     1     2   ar
     8     2     3   ar
     9     3    12    1
    10    12    13   ar
    11    13    14   ar
    12    14    15   ar
    13    15    16   ar
    14    16    18    1
    15    18    19    3
    16    19    20    1
    17    20    21   ar
    18    21    22   ar
    19    22    23   ar
    20    23    24   ar
    21    24    25   ar
    22    16    17   ar
    23     3     4   ar
    24     4     5   ar
    25     5     6   ar
    26     6     7   ar
    27     7     8   ar
    28     8     9   ar
    29     9    10   ar
    30    10    11    2
    31    32    30    1
    32    10     1   ar
    33    17    12   ar
    34     9     4   ar
    35    25    20   ar
    36    28    29    1
@<TRIPOS>MOLECULE
*****
 32 36 0 0 0
SMALL
GASTEIGER

@<TRIPOS>ATOM
      1 C         141.4013  144.2321  160.9204 C.ar    1  UNL1        0.1098
      2 C         140.4968  144.6964  159.8175 C.ar    1  UNL1        0.0891
      3 N         140.8705  144.4476  158.3863 N.ar    1  UNL1       -0.2900
      4 C         142.1487  143.7344  158.0579 C.ar    1  UNL1        0.1507
      5 N         142.5223  143.4856  156.6267 N.ar    1  UNL1       -0.2263
      6 C         143.8004  142.7725  156.2984 C.ar    1  UNL1        0.1005
      7 C         144.7049  142.3082  157.4013 C.ar    1  UNL1        0.0209
      8 C         144.3312  142.5570  158.8325 C.ar    1  UNL1        0.0078
      9 C         143.0531  143.2701  159.1608 C.ar    1  UNL1        0.0736
     10 C         142.6794  143.5190  160.5921 C.ar    1  UNL1        0.2043
     11 O         143.5839  143.0547  161.6950 O.2     1  UNL1       -0.2863
     12 C         139.9660  144.9119  157.2834 C.ar    1  UNL1        0.0660
     13 C         139.0680  143.9325  156.5875 C.ar    1  UNL1        0.0176
     14 C         138.1636  144.3968  155.4846 C.ar    1  UNL1        0.0021
     15 C         138.1571  145.8405  155.0776 C.ar    1  UNL1        0.0083
     16 C         139.0552  146.8200  155.7736 C.ar    1  UNL1        0.0434
     17 C         139.9596  146.3557  156.8765 C.ar    1  UNL1        0.0258
     18 C         139.0487  148.2636  155.3666 C.1     1  UNL1       -0.0597
     19 C         139.0423  149.7073  154.9596 C.1     1  UNL1       -0.0582
     20 C         139.0359  151.1511  154.5526 C.ar    1  UNL1        0.0611
     21 C         139.2750  151.5277  153.1205 C.ar    1  UNL1        0.0114
     22 C         139.2686  152.9713  152.7135 C.ar    1  UNL1        0.0213
     23 C         139.0230  154.0385  153.7386 C.ar    1  UNL1        0.0989
     24 N         138.7839  153.6620  155.1707 N.ar    1  UNL1       -0.2417
     25 C         138.7903  152.2182  155.5777 C.ar    1  UNL1        0.1071
     26 O         141.8854  145.3645  163.2081 O.2     1  UNL1       -0.2700
     27 C         141.0276  144.4809  162.3517 C.2     1  UNL1        0.2504
     28 N         139.7960  143.8462  162.9265 N.am    1  UNL1       -0.3024
     29 H         139.2330  143.2662  162.3644 H       1  UNL1        0.1497
     30 C         139.4223  144.0950  164.3577 C.3     1  UNL1        0.0720
     31 C         138.6489  144.8709  165.3823 C.3     1  UNL1        0.0213
     32 C         139.5483  143.7500  165.8120 C.3     1  UNL1        0.0213
@<TRIPOS>BOND
     1    26    27    2
     2    27    28   am
     3    28    30    1
     4    30    31    1
     5    31    32    1
     6    27     1    1
     7     1     2   ar
     8     2     3   ar
     9     3    12    1
    10    12    13   ar
    11    13    14   ar
    12    14    15   ar
    13    15    16   ar
    14    16    18    1
    15    18    19    3
    16    19    20    1
    17    20    21   ar
    18    21    22   ar
    19    22    23   ar
    20    23    24   ar
    21    24    25   ar
    22    16    17   ar
    23     3     4   ar
    24     4     5   ar
    25     5     6   ar
    26     6     7   ar
    27     7     8   ar
    28     8     9   ar
    29     9    10   ar
    30    10    11    2
    31    32    30    1
    32    10     1   ar
    33    17    12   ar
    34     9     4   ar
    35    25    20   ar
    36    28    29    1
@<TRIPOS>MOLECULE
*****
 32 36 0 0 0
SMALL
GASTEIGER

@<TRIPOS>ATOM
      1 C         142.0144  138.0596  157.6820 C.ar    1  UNL1        0.1098
      2 C         141.0040  138.4078  158.7345 C.ar    1  UNL1        0.0891
      3 N         141.1359  139.6868  159.5069 N.ar    1  UNL1       -0.2900
      4 C         142.2783  140.6177  159.2267 C.ar    1  UNL1        0.1507
      5 N         142.4103  141.8968  159.9990 N.ar    1  UNL1       -0.2263
      6 C         143.5526  142.8277  159.7188 C.ar    1  UNL1        0.1005
      7 C         144.5629  142.4794  158.6662 C.ar    1  UNL1        0.0209
      8 C         144.4310  141.2004  157.8939 C.ar    1  UNL1        0.0078
      9 C         143.2887  140.2695  158.1741 C.ar    1  UNL1        0.0736
     10 C         143.1567  138.9904  157.4017 C.ar    1  UNL1        0.2043
     11 O         144.1671  138.6422  156.3492 O.2     1  UNL1       -0.2863
     12 C         140.1256  140.0350  160.5594 C.ar    1  UNL1        0.0660
     13 C         138.7544  140.4937  160.1603 C.ar    1  UNL1        0.0176
     14 C         137.7440  140.8419  161.2129 C.ar    1  UNL1        0.0021
     15 C         138.1048  140.7314  162.6646 C.ar    1  UNL1        0.0083
     16 C         139.4761  140.2727  163.0638 C.ar    1  UNL1        0.0434
     17 C         140.4865  139.9245  162.0112 C.ar    1  UNL1        0.0258
     18 C         139.8369  140.1623  164.5155 C.1     1  UNL1       -0.0597
     19 C         140.1978  140.0518  165.9673 C.1     1  UNL1       -0.0582
     20 C         140.5587  139.9414  167.4191 C.ar    1  UNL1        0.0611
     21 C         141.9920  139.7640  167.8242 C.ar    1  UNL1        0.0114
     22 C         142.3529  139.6536  169.2759 C.ar    1  UNL1        0.0213
     23 C         141.2805  139.7206  170.3226 C.ar    1  UNL1        0.0989
     24 N         139.8472  139.8979  169.9175 N.ar    1  UNL1       -0.2417
     25 C         139.4863  140.0084  168.4657 C.ar    1  UNL1        0.1071
     26 O         140.6991  136.5640  156.0136 O.2     1  UNL1       -0.2700
     27 C         141.8824  136.7804  156.9096 C.2     1  UNL1        0.2504
     28 N         142.9337  135.7177  157.0333 N.am    1  UNL1       -0.3024
     29 H         143.7104  135.8598  157.6214 H       1  UNL1        0.1497
     30 C         142.8018  134.4386  156.2610 C.3     1  UNL1        0.0720
     31 C         142.8743  133.6921  154.9620 C.3     1  UNL1        0.0213
     32 C         142.5007  132.9697  156.2223 C.3     1  UNL1        0.0213
@<TRIPOS>BOND
     1    26    27    2
     2    27    28   am
     3    28    30    1
     4    30    31    1
     5    31    32    1
     6    27     1    1
     7     1     2   ar
     8     2     3   ar
     9     3    12    1
    10    12    13   ar
    11    13    14   ar
    12    14    15   ar
    13    15    16   ar
    14    16    18    1
    15    18    19    3
    16    19    20    1
    17    20    21   ar
    18    21    22   ar
    19    22    23   ar
    20    23    24   ar
    21    24    25   ar
    22    16    17   ar
    23     3     4   ar
    24     4     5   ar
    25     5     6   ar
    26     6     7   ar
    27     7     8   ar
    28     8     9   ar
    29     9    10   ar
    30    10    11    2
    31    32    30    1
    32    10     1   ar
    33    17    12   ar
    34     9     4   ar
    35    25    20   ar
    36    28    29    1
@<TRIPOS>MOLECULE
*****
 32 36 0 0 0
SMALL
GASTEIGER

@<TRIPOS>ATOM
      1 C         140.7363  141.4519  165.8202 C.ar    1  UNL1        0.1098
      2 C         141.0194  142.3314  164.6385 C.ar    1  UNL1        0.0891
      3 N         140.5885  141.9055  163.2663 N.ar    1  UNL1       -0.2900
      4 C         139.8746  140.6001  163.0757 C.ar    1  UNL1        0.1507
      5 N         139.4438  140.1742  161.7035 N.ar    1  UNL1       -0.2263
      6 C         138.7299  138.8689  161.5130 C.ar    1  UNL1        0.1005
      7 C         138.4468  137.9894  162.6947 C.ar    1  UNL1        0.0209
      8 C         138.8777  138.4152  164.0669 C.ar    1  UNL1        0.0078
      9 C         139.5916  139.7206  164.2574 C.ar    1  UNL1        0.0736
     10 C         140.0224  140.1465  165.6297 C.ar    1  UNL1        0.2043
     11 O         139.7394  139.2670  166.8113 O.2     1  UNL1       -0.2863
     12 C         140.8716  142.7850  162.0846 C.ar    1  UNL1        0.0660
     13 C         140.0310  144.0025  161.8375 C.ar    1  UNL1        0.0176
     14 C         140.3141  144.8821  160.6558 C.ar    1  UNL1        0.0021
     15 C         141.4376  144.5441  159.7213 C.ar    1  UNL1        0.0083
     16 C         142.2782  143.3265  159.9685 C.ar    1  UNL1        0.0434
     17 C         141.9952  142.4470  161.1501 C.ar    1  UNL1        0.0258
     18 C         143.4018  142.9885  159.0340 C.1     1  UNL1       -0.0597
     19 C         144.5254  142.6505  158.0995 C.1     1  UNL1       -0.0582
     20 C         145.6490  142.3125  157.1650 C.ar    1  UNL1        0.0611
     21 C         145.3887  141.4659  155.9543 C.ar    1  UNL1        0.0114
     22 C         146.5123  141.1279  155.0198 C.ar    1  UNL1        0.0213
     23 C         147.8962  141.6365  155.2959 C.ar    1  UNL1        0.0989
     24 N         148.1565  142.4830  156.5066 N.ar    1  UNL1       -0.2417
     25 C         147.0329  142.8210  157.4411 C.ar    1  UNL1        0.1071
     26 O         140.1447  142.3252  168.1945 O.2     1  UNL1       -0.2700
     27 C         141.1672  141.8778  167.1924 C.2     1  UNL1        0.2504
     28 N         142.6207  141.8563  167.5626 N.am    1  UNL1       -0.3024
     29 H         143.2918  141.5627  166.9048 H       1  UNL1        0.1497
     30 C         143.0516  142.2822  168.9347 C.3     1  UNL1        0.0720
     31 C         144.1408  142.5288  169.9362 C.3     1  UNL1        0.0213
     32 C         142.7088  142.7733  170.3100 C.3     1  UNL1        0.0213
@<TRIPOS>BOND
     1    26    27    2
     2    27    28   am
     3    28    30    1
     4    30    31    1
     5    31    32    1
     6    27     1    1
     7     1     2   ar
     8     2     3   ar
     9     3    12    1
    10    12    13   ar
    11    13    14   ar
    12    14    15   ar
    13    15    16   ar
    14    16    18    1
    15    18    19    3
    16    19    20    1
    17    20    21   ar
    18    21    22   ar
    19    22    23   ar
    20    23    24   ar
    21    24    25   ar
    22    16    17   ar
    23     3     4   ar
    24     4     5   ar
    25     5     6   ar
    26     6     7   ar
    27     7     8   ar
    28     8     9   ar
    29     9    10   ar
    30    10    11    2
    31    32    30    1
    32    10     1   ar
    33    17    12   ar
    34     9     4   ar
    35    25    20   ar
    36    28    29    1
@<TRIPOS>MOLECULE
*****
 32 36 0 0 0
SMALL
GASTEIGER

@<TRIPOS>ATOM
      1 C         141.8726  141.8293  164.4507 C.ar    1  UNL1        0.1098
      2 C         142.5382  141.4450  163.1626 C.ar    1  UNL1        0.0891
      3 N         142.3151  142.2678  161.9284 N.ar    1  UNL1       -0.2900
      4 C         141.4263  143.4750  161.9824 C.ar    1  UNL1        0.1507
      5 N         141.2032  144.2978  160.7482 N.ar    1  UNL1       -0.2263
      6 C         140.3145  145.5050  160.8022 C.ar    1  UNL1        0.1005
      7 C         139.6489  145.8893  162.0903 C.ar    1  UNL1        0.0209
      8 C         139.8720  145.0665  163.3245 C.ar    1  UNL1        0.0078
      9 C         140.7607  143.8594  163.2705 C.ar    1  UNL1        0.0736
     10 C         140.9839  143.0365  164.5047 C.ar    1  UNL1        0.2043
     11 O         140.3183  143.4208  165.7928 O.2     1  UNL1       -0.2863
     12 C         142.9807  141.8835  160.6403 C.ar    1  UNL1        0.0660
     13 C         143.9531  142.8219  159.9894 C.ar    1  UNL1        0.0176
     14 C         144.6187  142.4375  158.7013 C.ar    1  UNL1        0.0021
     15 C         144.3119  141.1148  158.0641 C.ar    1  UNL1        0.0083
     16 C         143.3394  140.1763  158.7150 C.ar    1  UNL1        0.0434
     17 C         142.6738  140.5606  160.0031 C.ar    1  UNL1        0.0258
     18 C         143.0326  138.8535  158.0778 C.1     1  UNL1       -0.0597
     19 C         142.7258  137.5307  157.4405 C.1     1  UNL1       -0.0582
     20 C         142.4189  136.2079  156.8033 C.ar    1  UNL1        0.0611
     21 C         143.1928  134.9862  157.2013 C.ar    1  UNL1        0.0114
     22 C         142.8860  133.6634  156.5641 C.ar    1  UNL1        0.0213
     23 C         141.8052  133.5623  155.5288 C.ar    1  UNL1        0.0989
     24 N         141.0313  134.7840  155.1308 N.ar    1  UNL1       -0.2417
     25 C         141.3382  136.1068  155.7680 C.ar    1  UNL1        0.1071
     26 O         142.1366  139.5100  165.5913 O.2     1  UNL1       -0.2700
     27 C         142.0957  141.0065  165.6849 C.2     1  UNL1        0.2504
     28 N         142.2780  141.6802  167.0126 N.am    1  UNL1       -0.3024
     29 H         142.2512  142.6624  167.0741 H       1  UNL1        0.1497
     30 C         142.5011  140.8574  168.2468 C.3     1  UNL1        0.0720
     31 C         142.9839  140.7435  169.6624 C.3     1  UNL1        0.0213
     32 C         142.4049  139.5462  168.9689 C.3     1  UNL1        0.0213
@<TRIPOS>BOND
     1    26    27    2
     2    27    28   am
     3    28    30    1
     4    30    31    1
     5    31    32    1
     6    27     1    1
     7     1     2   ar
     8     2     3   ar
     9     3    12    1
    10    12    13   ar
    11    13    14   ar
    12    14    15   ar
    13    15    16   ar
    14    16    18    1
    15    18    19    3
    16    19    20    1
    17    20    21   ar
    18    21    22   ar
    19    22    23   ar
    20    23    24   ar
    21    24    25   ar
    22    16    17   ar
    23     3     4   ar
    24     4     5   ar
    25     5     6   ar
    26     6     7   ar
    27     7     8   ar
    28     8     9   ar
    29     9    10   ar
    30    10    11    2
    31    32    30    1
    32    10     1   ar
    33    17    12   ar
    34     9     4   ar
    35    25    20   ar
    36    28    29    1
