@<TRIPOS>MOLECULE
*****
 25 28 0 0 0
SMALL
GASTEIGER

@<TRIPOS>ATOM
      1 N         139.7225  139.8616  165.3593 N.am    1  UNL1       -0.2413
      2 C         139.2739  138.7768  164.4255 C.3     1  UNL1        0.1212
      3 C         138.3106  139.3779  163.4453 C.3     1  UNL1        0.1169
      4 N         138.1637  140.8343  163.7734 N.am    1  UNL1       -0.2606
      5 C         139.0363  141.1332  164.9563 C.2     1  UNL1        0.3111
      6 O         139.1950  142.4691  165.6197 O.2     1  UNL1       -0.2520
      7 C         141.2706  139.9989  169.0109 C.ar    1  UNL1        0.0697
      8 C         142.6179  139.3850  168.7708 C.ar    1  UNL1        0.0104
      9 C         143.0001  138.9299  167.3935 C.ar    1  UNL1        0.0020
     10 C         142.0350  139.0888  166.2563 C.ar    1  UNL1        0.0150
     11 C         140.6876  139.7027  166.4964 C.ar    1  UNL1        0.0560
     12 C         140.3054  140.1578  167.8737 C.ar    1  UNL1        0.0252
     13 N         140.5061  140.9090  171.7654 N.1     1  UNL1       -0.1908
     14 C         140.8883  140.4540  170.3881 C.1     1  UNL1        0.1005
     15 C         137.2966  141.8188  163.0462 C.3     1  UNL1        0.1123
     16 C         137.9176  142.8352  162.1346 C.3     1  UNL1        0.0944
     17 N         139.3469  143.2454  162.3317 N.3     1  UNL1       -0.2637
     18 C         139.8270  144.3953  163.1667 C.3     1  UNL1        0.0992
     19 C         141.3239  144.4384  163.0795 C.ar    1  UNL1       -0.0088
     20 C         142.3392  145.3553  163.6946 C.ar    1  UNL1       -0.0032
     21 C         143.7994  145.1490  163.4208 C.ar    1  UNL1       -0.0003
     22 C         144.2444  144.0257  162.5319 C.ar    1  UNL1       -0.0003
     23 C         143.2291  143.1087  161.9167 C.ar    1  UNL1       -0.0032
     24 C         141.7689  143.3151  162.1905 C.ar    1  UNL1       -0.0088
     25 C         140.5470  142.5778  161.7284 C.3     1  UNL1        0.0992
@<TRIPOS>BOND
     1    13    14    3
     2    14     7    1
     3     7     8   ar
     4     8     9   ar
     5     9    10   ar
     6    10    11   ar
     7    11     1    1
     8     1     2    1
     9     2     3    1
    10     3     4    1
    11     4    15    1
    12    15    16    1
    13    16    17    1
    14    17    18    1
    15    18    19    1
    16    19    20   ar
    17    20    21   ar
    18    21    22   ar
    19    22    23   ar
    20    23    24   ar
    21    24    25    1
    22     4     5   am
    23     5     6    2
    24    11    12   ar
    25    12     7   ar
    26     5     1   am
    27    25    17    1
    28    24    19   ar
@<TRIPOS>MOLECULE
*****
 25 28 0 0 0
SMALL
GASTEIGER

@<TRIPOS>ATOM
      1 N         138.7792  141.3102  162.8770 N.am    1  UNL1       -0.2413
      2 C         138.3392  141.4800  161.4530 C.3     1  UNL1        0.1212
      3 C         138.3812  142.9434  161.1262 C.3     1  UNL1        0.1169
      4 N         138.8472  143.6780  162.3483 N.am    1  UNL1       -0.2606
      5 C         139.0932  142.6686  163.4302 C.2     1  UNL1        0.3111
      6 O         139.5695  142.9655  164.8212 O.2     1  UNL1       -0.2520
      7 C         138.3071  138.5420  165.6812 C.ar    1  UNL1        0.0697
      8 C         139.1007  137.4102  165.0988 C.ar    1  UNL1        0.0104
      9 C         139.7871  137.5784  163.7757 C.ar    1  UNL1        0.0020
     10 C         139.6799  138.8784  163.0350 C.ar    1  UNL1        0.0150
     11 C         138.8864  140.0102  163.6175 C.ar    1  UNL1        0.0560
     12 C         138.2000  139.8420  164.9406 C.ar    1  UNL1        0.0252
     13 N         136.9343  138.2056  168.3274 N.1     1  UNL1       -0.1908
     14 C         137.6207  138.3738  167.0043 C.1     1  UNL1        0.1005
     15 C         139.0344  145.1615  162.4673 C.3     1  UNL1        0.1123
     16 C         140.4136  145.7494  162.4229 C.3     1  UNL1        0.0944
     17 N         141.6083  144.8797  162.6807 N.3     1  UNL1       -0.2637
     18 C         142.3000  144.7000  163.9995 C.3     1  UNL1        0.0992
     19 C         143.4402  143.7463  163.7988 C.ar    1  UNL1       -0.0088
     20 C         144.4683  143.1980  164.7434 C.ar    1  UNL1       -0.0032
     21 C         145.5094  142.2400  164.2452 C.ar    1  UNL1       -0.0003
     22 C         145.5224  141.8302  162.8023 C.ar    1  UNL1       -0.0003
     23 C         144.4943  142.3785  161.8576 C.ar    1  UNL1       -0.0032
     24 C         143.4532  143.3365  162.3559 C.ar    1  UNL1       -0.0088
     25 C         142.3210  144.0370  161.6649 C.3     1  UNL1        0.0992
@<TRIPOS>BOND
     1    13    14    3
     2    14     7    1
     3     7     8   ar
     4     8     9   ar
     5     9    10   ar
     6    10    11   ar
     7    11     1    1
     8     1     2    1
     9     2     3    1
    10     3     4    1
    11     4    15    1
    12    15    16    1
    13    16    17    1
    14    17    18    1
    15    18    19    1
    16    19    20   ar
    17    20    21   ar
    18    21    22   ar
    19    22    23   ar
    20    23    24   ar
    21    24    25    1
    22     4     5   am
    23     5     6    2
    24    11    12   ar
    25    12     7   ar
    26     5     1   am
    27    25    17    1
    28    24    19   ar
@<TRIPOS>MOLECULE
*****
 25 28 0 0 0
SMALL
GASTEIGER

@<TRIPOS>ATOM
      1 N         140.6277  139.2714  166.2038 N.am    1  UNL1       -0.2413
      2 C         141.7837  138.6846  165.4492 C.3     1  UNL1        0.1212
      3 C         141.2418  138.0019  164.2284 C.3     1  UNL1        0.1169
      4 N         139.7508  138.1668  164.2285 N.am    1  UNL1       -0.2606
      5 C         139.3713  138.9513  165.4494 C.2     1  UNL1        0.3111
      6 O         137.9798  139.3465  165.8461 O.2     1  UNL1       -0.2520
      7 C         142.0717  141.5157  169.1410 C.ar    1  UNL1        0.0697
      8 C         140.8840  141.5855  170.0546 C.ar    1  UNL1        0.0104
      9 C         139.6109  140.8840  169.6845 C.ar    1  UNL1        0.0020
     10 C         139.5254  140.1126  168.4009 C.ar    1  UNL1        0.0150
     11 C         140.7131  140.0427  167.4874 C.ar    1  UNL1        0.0560
     12 C         141.9862  140.7443  167.8574 C.ar    1  UNL1        0.0252
     13 N         144.6180  142.9188  169.8812 N.1     1  UNL1       -0.1908
     14 C         143.3449  142.2172  169.5111 C.1     1  UNL1        0.1005
     15 C         138.8054  137.6396  163.1901 C.3     1  UNL1        0.1123
     16 C         138.1878  138.5755  162.1939 C.3     1  UNL1        0.0944
     17 N         138.4594  140.0482  162.2798 N.3     1  UNL1       -0.2637
     18 C         137.5230  141.0874  162.8211 C.3     1  UNL1        0.0992
     19 C         138.2000  142.4218  162.7153 C.ar    1  UNL1       -0.0088
     20 C         137.7578  143.8044  163.0930 C.ar    1  UNL1       -0.0032
     21 C         138.6705  144.9725  162.8641 C.ar    1  UNL1       -0.0003
     22 C         140.0255  144.7579  162.2573 C.ar    1  UNL1       -0.0003
     23 C         140.4677  143.3753  161.8796 C.ar    1  UNL1       -0.0032
     24 C         139.5550  142.2072  162.1086 C.ar    1  UNL1       -0.0088
     25 C         139.7153  140.7403  161.8394 C.3     1  UNL1        0.0992
@<TRIPOS>BOND
     1    13    14    3
     2    14     7    1
     3     7     8   ar
     4     8     9   ar
     5     9    10   ar
     6    10    11   ar
     7    11     1    1
     8     1     2    1
     9     2     3    1
    10     3     4    1
    11     4    15    1
    12    15    16    1
    13    16    17    1
    14    17    18    1
    15    18    19    1
    16    19    20   ar
    17    20    21   ar
    18    21    22   ar
    19    22    23   ar
    20    23    24   ar
    21    24    25    1
    22     4     5   am
    23     5     6    2
    24    11    12   ar
    25    12     7   ar
    26     5     1   am
    27    25    17    1
    28    24    19   ar
@<TRIPOS>MOLECULE
*****
 25 28 0 0 0
SMALL
GASTEIGER

@<TRIPOS>ATOM
      1 N         140.4094  138.4322  163.8126 N.am    1  UNL1       -0.2413
      2 C         139.7734  138.3184  162.4589 C.3     1  UNL1        0.1212
      3 C         140.8624  138.0915  161.4526 C.3     1  UNL1        0.1169
      4 N         142.1716  138.0651  162.1844 N.am    1  UNL1       -0.2606
      5 C         141.8915  138.2756  163.6430 C.2     1  UNL1        0.3111
      6 O         142.9141  138.3216  164.7394 O.2     1  UNL1       -0.2520
      7 C         139.4550  139.9463  167.3546 C.ar    1  UNL1        0.0697
      8 C         138.2502  139.1222  167.6998 C.ar    1  UNL1        0.0104
      9 C         137.7651  138.0681  166.7493 C.ar    1  UNL1        0.0020
     10 C         138.4848  137.8381  165.4535 C.ar    1  UNL1        0.0150
     11 C         139.6896  138.6621  165.1083 C.ar    1  UNL1        0.0560
     12 C         140.1747  139.7163  166.0588 C.ar    1  UNL1        0.0252
     13 N         140.4252  142.0546  169.2557 N.1     1  UNL1       -0.1908
     14 C         139.9401  141.0004  168.3052 C.1     1  UNL1        0.1005
     15 C         143.5233  137.8635  161.5663 C.3     1  UNL1        0.1123
     16 C         144.3135  139.0457  161.0889 C.3     1  UNL1        0.0944
     17 N         144.1897  140.3644  161.7929 N.3     1  UNL1       -0.2637
     18 C         143.4925  141.5833  161.2657 C.3     1  UNL1        0.0992
     19 C         143.6132  142.6680  162.2947 C.ar    1  UNL1       -0.0088
     20 C         143.1200  144.0843  162.3228 C.ar    1  UNL1       -0.0032
     21 C         143.3988  144.9520  163.5141 C.ar    1  UNL1       -0.0003
     22 C         144.1707  144.4034  164.6774 C.ar    1  UNL1       -0.0003
     23 C         144.6639  142.9871  164.6493 C.ar    1  UNL1       -0.0032
     24 C         144.3851  142.1194  163.4580 C.ar    1  UNL1       -0.0088
     25 C         144.7414  140.6957  163.1479 C.3     1  UNL1        0.0992
@<TRIPOS>BOND
     1    13    14    3
     2    14     7    1
     3     7     8   ar
     4     8     9   ar
     5     9    10   ar
     6    10    11   ar
     7    11     1    1
     8     1     2    1
     9     2     3    1
    10     3     4    1
    11     4    15    1
    12    15    16    1
    13    16    17    1
    14    17    18    1
    15    18    19    1
    16    19    20   ar
    17    20    21   ar
    18    21    22   ar
    19    22    23   ar
    20    23    24   ar
    21    24    25    1
    22     4     5   am
    23     5     6    2
    24    11    12   ar
    25    12     7   ar
    26     5     1   am
    27    25    17    1
    28    24    19   ar
@<TRIPOS>MOLECULE
*****
 25 28 0 0 0
SMALL
GASTEIGER

@<TRIPOS>ATOM
      1 N         142.5140  139.8522  165.6376 N.am    1  UNL1       -0.2413
      2 C         142.9421  138.7332  164.7350 C.3     1  UNL1        0.1212
      3 C         144.1588  139.1841  163.9825 C.3     1  UNL1        0.1169
      4 N         144.4828  140.5819  164.4201 N.am    1  UNL1       -0.2606
      5 C         143.4662  140.9947  165.4429 C.2     1  UNL1        0.3111
      6 O         143.4115  142.3178  166.1475 O.2     1  UNL1       -0.2520
      7 C         140.3424  140.2083  168.9401 C.ar    1  UNL1        0.0697
      8 C         138.9918  139.7919  168.4375 C.ar    1  UNL1        0.0104
      9 C         138.8153  139.3956  167.0016 C.ar    1  UNL1        0.0020
     10 C         139.9894  139.4157  166.0683 C.ar    1  UNL1        0.0150
     11 C         141.3400  139.8321  166.5708 C.ar    1  UNL1        0.0560
     12 C         141.5165  140.2284  168.0067 C.ar    1  UNL1        0.0252
     13 N         140.6954  141.0010  171.8119 N.1     1  UNL1       -0.1908
     14 C         140.5189  140.6047  170.3760 C.1     1  UNL1        0.1005
     15 C         145.6231  141.4196  163.9222 C.3     1  UNL1        0.1123
     16 C         145.4994  142.1586  162.6228 C.3     1  UNL1        0.0944
     17 N         144.2690  142.9662  162.3334 N.3     1  UNL1       -0.2637
     18 C         143.6162  143.9433  163.2657 C.3     1  UNL1        0.0992
     19 C         142.4191  144.5196  162.5694 C.ar    1  UNL1       -0.0088
     20 C         141.3971  145.5295  163.0002 C.ar    1  UNL1       -0.0032
     21 C         140.2880  145.9184  162.0682 C.ar    1  UNL1       -0.0003
     22 C         140.2009  145.2975  160.7056 C.ar    1  UNL1       -0.0003
     23 C         141.2229  144.2876  160.2748 C.ar    1  UNL1       -0.0032
     24 C         142.3320  143.8987  161.2068 C.ar    1  UNL1       -0.0088
     25 C         143.4753  142.9387  161.0609 C.3     1  UNL1        0.0992
@<TRIPOS>BOND
     1    13    14    3
     2    14     7    1
     3     7     8   ar
     4     8     9   ar
     5     9    10   ar
     6    10    11   ar
     7    11     1    1
     8     1     2    1
     9     2     3    1
    10     3     4    1
    11     4    15    1
    12    15    16    1
    13    16    17    1
    14    17    18    1
    15    18    19    1
    16    19    20   ar
    17    20    21   ar
    18    21    22   ar
    19    22    23   ar
    20    23    24   ar
    21    24    25    1
    22     4     5   am
    23     5     6    2
    24    11    12   ar
    25    12     7   ar
    26     5     1   am
    27    25    17    1
    28    24    19   ar
@<TRIPOS>MOLECULE
*****
 25 28 0 0 0
SMALL
GASTEIGER

@<TRIPOS>ATOM
      1 N         141.4051  139.3374  166.7899 N.am    1  UNL1       -0.2413
      2 C         142.4669  138.8988  165.8254 C.3     1  UNL1        0.1212
      3 C         141.7896  138.2601  164.6492 C.3     1  UNL1        0.1169
      4 N         140.3091  138.3039  164.8868 N.am    1  UNL1       -0.2606
      5 C         140.0715  138.9697  166.2098 C.2     1  UNL1        0.3111
      6 O         138.7350  139.2234  166.8417 O.2     1  UNL1       -0.2520
      7 C         141.2582  142.0548  169.6784 C.ar    1  UNL1        0.0697
      8 C         142.0985  141.3950  170.7313 C.ar    1  UNL1        0.0104
      9 C         142.7077  140.0494  170.4703 C.ar    1  UNL1        0.0020
     10 C         142.4766  139.3635  169.1565 C.ar    1  UNL1        0.0150
     11 C         141.6362  140.0232  168.1036 C.ar    1  UNL1        0.0560
     12 C         141.0270  141.3689  168.3646 C.ar    1  UNL1        0.0252
     13 N         140.0398  144.7461  170.2004 N.1     1  UNL1       -0.1908
     14 C         140.6490  143.4005  169.9394 C.1     1  UNL1        0.1005
     15 C         139.2520  137.7748  163.9635 C.3     1  UNL1        0.1123
     16 C         138.5086  138.7124  163.0590 C.3     1  UNL1        0.0944
     17 N         138.7238  140.1925  163.1726 N.3     1  UNL1       -0.2637
     18 C         139.7614  140.9913  162.4410 C.3     1  UNL1        0.0992
     19 C         139.6180  142.4262  162.8540 C.ar    1  UNL1       -0.0088
     20 C         140.3675  143.6640  162.4590 C.ar    1  UNL1       -0.0032
     21 C         139.9907  144.9898  163.0508 C.ar    1  UNL1       -0.0003
     22 C         138.8644  145.0778  164.0375 C.ar    1  UNL1       -0.0003
     23 C         138.1149  143.8400  164.4325 C.ar    1  UNL1       -0.0032
     24 C         138.4917  142.5142  163.8408 C.ar    1  UNL1       -0.0088
     25 C         137.9391  141.1337  164.0376 C.3     1  UNL1        0.0992
@<TRIPOS>BOND
     1    13    14    3
     2    14     7    1
     3     7     8   ar
     4     8     9   ar
     5     9    10   ar
     6    10    11   ar
     7    11     1    1
     8     1     2    1
     9     2     3    1
    10     3     4    1
    11     4    15    1
    12    15    16    1
    13    16    17    1
    14    17    18    1
    15    18    19    1
    16    19    20   ar
    17    20    21   ar
    18    21    22   ar
    19    22    23   ar
    20    23    24   ar
    21    24    25    1
    22     4     5   am
    23     5     6    2
    24    11    12   ar
    25    12     7   ar
    26     5     1   am
    27    25    17    1
    28    24    19   ar
@<TRIPOS>MOLECULE
*****
 25 28 0 0 0
SMALL
GASTEIGER

@<TRIPOS>ATOM
      1 N         140.9852  142.9862  165.5506 N.am    1  UNL1       -0.2413
      2 C         140.1359  143.8486  164.6647 C.3     1  UNL1        0.1212
      3 C         141.0472  144.6174  163.7544 C.3     1  UNL1        0.1169
      4 N         142.4598  144.2301  164.0778 N.am    1  UNL1       -0.2606
      5 C         142.4215  143.2220  165.1879 C.2     1  UNL1        0.3111
      6 O         143.6107  142.5649  165.8236 O.2     1  UNL1       -0.2520
      7 C         140.1617  141.4670  169.1232 C.ar    1  UNL1        0.0697
      8 C         139.4874  140.1839  168.7370 C.ar    1  UNL1        0.0104
      9 C         139.3125  139.8350  167.2887 C.ar    1  UNL1        0.0020
     10 C         139.8117  140.7691  166.2265 C.ar    1  UNL1        0.0150
     11 C         140.4860  142.0521  166.6127 C.ar    1  UNL1        0.0560
     12 C         140.6609  142.4011  168.0610 C.ar    1  UNL1        0.0252
     13 N         140.5116  142.1649  172.0198 N.1     1  UNL1       -0.1908
     14 C         140.3366  141.8160  170.5715 C.1     1  UNL1        0.1005
     15 C         143.6940  144.7582  163.4086 C.3     1  UNL1        0.1123
     16 C         144.4300  143.9092  162.4148 C.3     1  UNL1        0.0944
     17 N         143.9217  142.5390  162.0769 N.3     1  UNL1       -0.2637
     18 C         144.4662  141.2428  162.5998 C.3     1  UNL1        0.0992
     19 C         143.6607  140.1271  162.0028 C.ar    1  UNL1       -0.0088
     20 C         143.7417  138.6372  162.1562 C.ar    1  UNL1       -0.0032
     21 C         142.7803  137.7539  161.4176 C.ar    1  UNL1       -0.0003
     22 C         141.7379  138.3606  160.5257 C.ar    1  UNL1       -0.0003
     23 C         141.6569  139.8505  160.3724 C.ar    1  UNL1       -0.0032
     24 C         142.6183  140.7338  161.1109 C.ar    1  UNL1       -0.0088
     25 C         142.7796  142.2244  161.1567 C.3     1  UNL1        0.0992
@<TRIPOS>BOND
     1    13    14    3
     2    14     7    1
     3     7     8   ar
     4     8     9   ar
     5     9    10   ar
     6    10    11   ar
     7    11     1    1
     8     1     2    1
     9     2     3    1
    10     3     4    1
    11     4    15    1
    12    15    16    1
    13    16    17    1
    14    17    18    1
    15    18    19    1
    16    19    20   ar
    17    20    21   ar
    18    21    22   ar
    19    22    23   ar
    20    23    24   ar
    21    24    25    1
    22     4     5   am
    23     5     6    2
    24    11    12   ar
    25    12     7   ar
    26     5     1   am
    27    25    17    1
    28    24    19   ar
@<TRIPOS>MOLECULE
*****
 25 28 0 0 0
SMALL
GASTEIGER

@<TRIPOS>ATOM
      1 N         143.2044  140.7325  165.9982 N.am    1  UNL1       -0.2413
      2 C         143.2264  139.5437  165.0837 C.3     1  UNL1        0.1212
      3 C         143.9349  139.9418  163.8228 C.3     1  UNL1        0.1169
      4 N         144.3507  141.3767  163.9581 N.am    1  UNL1       -0.2606
      5 C         143.8993  141.8654  165.3025 C.2     1  UNL1        0.3111
      6 O         144.1063  143.2447  165.8544 O.2     1  UNL1       -0.2520
      7 C         141.3619  142.0975  169.2372 C.ar    1  UNL1        0.0697
      8 C         141.3750  140.8755  170.1069 C.ar    1  UNL1        0.0104
      9 C         141.9979  139.6057  169.6070 C.ar    1  UNL1        0.0020
     10 C         142.6077  139.5581  168.2374 C.ar    1  UNL1        0.0150
     11 C         142.5946  140.7801  167.3677 C.ar    1  UNL1        0.0560
     12 C         141.9718  142.0498  167.8676 C.ar    1  UNL1        0.0252
     13 N         140.1162  144.6369  170.2371 N.1     1  UNL1       -0.1908
     14 C         140.7391  143.3672  169.7371 C.1     1  UNL1        0.1005
     15 C         145.0885  142.1815  162.9295 C.3     1  UNL1        0.1123
     16 C         144.3525  143.1874  162.0950 C.3     1  UNL1        0.0944
     17 N         142.8677  143.3414  162.2420 N.3     1  UNL1       -0.2637
     18 C         141.8240  142.4649  161.6156 C.3     1  UNL1        0.0992
     19 C         140.4771  142.9807  162.0277 C.ar    1  UNL1       -0.0088
     20 C         139.0856  142.5164  161.7145 C.ar    1  UNL1       -0.0032
     21 C         137.9054  143.2475  162.2824 C.ar    1  UNL1       -0.0003
     22 C         138.1167  144.4429  163.1636 C.ar    1  UNL1       -0.0003
     23 C         139.5082  144.9072  163.4768 C.ar    1  UNL1       -0.0032
     24 C         140.6884  144.1761  162.9089 C.ar    1  UNL1       -0.0088
     25 C         142.1658  144.3990  163.0413 C.3     1  UNL1        0.0992
@<TRIPOS>BOND
     1    13    14    3
     2    14     7    1
     3     7     8   ar
     4     8     9   ar
     5     9    10   ar
     6    10    11   ar
     7    11     1    1
     8     1     2    1
     9     2     3    1
    10     3     4    1
    11     4    15    1
    12    15    16    1
    13    16    17    1
    14    17    18    1
    15    18    19    1
    16    19    20   ar
    17    20    21   ar
    18    21    22   ar
    19    22    23   ar
    20    23    24   ar
    21    24    25    1
    22     4     5   am
    23     5     6    2
    24    11    12   ar
    25    12     7   ar
    26     5     1   am
    27    25    17    1
    28    24    19   ar
@<TRIPOS>MOLECULE
*****
 25 28 0 0 0
SMALL
GASTEIGER

@<TRIPOS>ATOM
      1 N         141.0752  139.5448  166.6971 N.am    1  UNL1       -0.2413
      2 C         139.7036  139.1901  166.2040 C.3     1  UNL1        0.1212
      3 C         139.8459  138.5636  164.8485 C.3     1  UNL1        0.1169
      4 N         141.3055  138.5313  164.5038 N.am    1  UNL1       -0.2606
      5 C         142.0651  139.1377  165.6462 C.2     1  UNL1        0.3111
      6 O         143.5535  139.3073  165.7242 O.2     1  UNL1       -0.2520
      7 C         141.1578  142.1902  169.6543 C.ar    1  UNL1        0.0697
      8 C         142.0485  141.4893  170.6367 C.ar    1  UNL1        0.0104
      9 C         142.6149  140.1402  170.3060 C.ar    1  UNL1        0.0020
     10 C         142.2904  139.4921  168.9927 C.ar    1  UNL1        0.0150
     11 C         141.3996  140.1929  168.0103 C.ar    1  UNL1        0.0560
     12 C         140.8333  141.5420  168.3410 C.ar    1  UNL1        0.0252
     13 N         140.0251  144.8882  170.3158 N.1     1  UNL1       -0.1908
     14 C         140.5914  143.5392  169.9850 C.1     1  UNL1        0.1005
     15 C         141.9008  137.9880  163.2387 C.3     1  UNL1        0.1123
     16 C         142.4467  138.9261  162.2034 C.3     1  UNL1        0.0944
     17 N         142.5469  140.3932  162.4990 N.3     1  UNL1       -0.2637
     18 C         143.8135  141.1593  162.7417 C.3     1  UNL1        0.0992
     19 C         143.4475  142.5915  162.9965 C.ar    1  UNL1       -0.0088
     20 C         144.2807  143.8025  163.2951 C.ar    1  UNL1       -0.0032
     21 C         143.6210  145.1326  163.5085 C.ar    1  UNL1       -0.0003
     22 C         142.1282  145.2517  163.4233 C.ar    1  UNL1       -0.0003
     23 C         141.2950  144.0407  163.1247 C.ar    1  UNL1       -0.0032
     24 C         141.9547  142.7106  162.9113 C.ar    1  UNL1       -0.0088
     25 C         141.3981  141.3520  162.6038 C.3     1  UNL1        0.0992
@<TRIPOS>BOND
     1    13    14    3
     2    14     7    1
     3     7     8   ar
     4     8     9   ar
     5     9    10   ar
     6    10    11   ar
     7    11     1    1
     8     1     2    1
     9     2     3    1
    10     3     4    1
    11     4    15    1
    12    15    16    1
    13    16    17    1
    14    17    18    1
    15    18    19    1
    16    19    20   ar
    17    20    21   ar
    18    21    22   ar
    19    22    23   ar
    20    23    24   ar
    21    24    25    1
    22     4     5   am
    23     5     6    2
    24    11    12   ar
    25    12     7   ar
    26     5     1   am
    27    25    17    1
    28    24    19   ar
