@<TRIPOS>MOLECULE
*****
 35 40 0 0 0
SMALL
GASTEIGER

@<TRIPOS>ATOM
      1 C         139.1442  139.2843  159.7821 C.ar    1  UNL1        0.1233
      2 C         140.2910  138.7408  158.9825 C.ar    1  UNL1        0.1179
      3 N         139.9690  138.9212  157.5285 N.ar    1  UNL1       -0.2257
      4 N         138.6231  139.5762  157.4296 N.ar    1  UNL1       -0.0635
      5 N         138.1133  139.8006  158.8225 N.ar    1  UNL1       -0.1287
      6 C         138.2999  140.4941  163.4663 C.ar    1  UNL1        0.1547
      7 C         138.3985  140.4709  161.9697 C.ar    1  UNL1        0.0400
      8 C         139.0455  139.3074  161.2786 C.ar    1  UNL1        0.0241
      9 C         139.5939  138.1671  162.0841 C.ar    1  UNL1        0.0033
     10 C         139.4953  138.1901  163.5807 C.ar    1  UNL1        0.0207
     11 C         138.8482  139.3537  164.2718 C.ar    1  UNL1        0.0994
     12 N         138.7496  139.3768  165.7684 N.ar    1  UNL1       -0.2839
     13 C         137.7635  138.6100  166.5989 C.ar    1  UNL1        0.1826
     14 N         138.0241  138.9301  168.0410 N.ar    1  UNL1       -0.2280
     15 C         139.1713  139.8946  168.1017 C.ar    1  UNL1        0.0786
     16 C         139.7657  140.4803  169.3482 C.3     1  UNL1        0.0538
     17 C         139.6196  140.1707  166.6972 C.ar    1  UNL1        0.0963
     18 C         137.8183  143.0432  163.6073 C.3     1  UNL1        0.2525
     19 O         137.6528  141.6575  164.1574 O.3     1  UNL1       -0.4700
     20 C         140.8398  138.5175  156.3759 C.3     1  UNL1        0.1556
     21 C         141.3625  137.1144  156.2862 C.ar    1  UNL1        0.0022
     22 C         142.5556  136.7051  157.0980 C.ar    1  UNL1       -0.0022
     23 C         143.0782  135.3020  157.0083 C.ar    1  UNL1        0.0044
     24 C         142.4078  134.3081  156.1068 C.ar    1  UNL1        0.0536
     25 C         141.2147  134.7174  155.2950 C.ar    1  UNL1        0.0044
     26 C         140.6921  136.1205  155.3847 C.ar    1  UNL1       -0.0022
     27 C         142.9304  132.9050  156.0171 C.ar    1  UNL1        0.2297
     28 N         142.8282  131.8561  157.0845 N.ar    1  UNL1       -0.2083
     29 C         143.4817  130.6072  156.5713 C.ar    1  UNL1        0.1189
     30 C         143.6813  129.2536  157.1860 C.ar    1  UNL1        0.0223
     31 C         144.3869  128.1770  156.4160 C.ar    1  UNL1        0.0018
     32 C         144.8930  128.4540  155.0314 C.ar    1  UNL1        0.0032
     33 C         144.6934  129.8076  154.4167 C.ar    1  UNL1        0.0391
     34 C         143.9878  130.8842  155.1867 C.ar    1  UNL1        0.1647
     35 O         143.6471  132.3043  154.8442 O.2     1  UNL1       -0.4346
@<TRIPOS>BOND
     1    18    19    1
     2    19     6    1
     3     6     7   ar
     4     7     8   ar
     5     8     1    1
     6     1     2   ar
     7     2     3   ar
     8     3    20    1
     9    20    21    1
    10    21    22   ar
    11    22    23   ar
    12    23    24   ar
    13    24    27    1
    14    27    28   ar
    15    28    29   ar
    16    29    30   ar
    17    30    31   ar
    18    31    32   ar
    19    32    33   ar
    20    33    34   ar
    21    34    35   ar
    22    24    25   ar
    23    25    26   ar
    24     3     4   ar
    25     4     5   ar
    26     8     9   ar
    27     9    10   ar
    28    10    11   ar
    29    11    12    1
    30    12    13   ar
    31    13    14   ar
    32    14    15   ar
    33    15    16    1
    34    15    17   ar
    35    11     6   ar
    36    17    12   ar
    37     5     1   ar
    38    26    21   ar
    39    35    27   ar
    40    34    29   ar
@<TRIPOS>MOLECULE
*****
 35 40 0 0 0
SMALL
GASTEIGER

@<TRIPOS>ATOM
      1 C         139.2066  139.2307  159.7990 C.ar    1  UNL1        0.1233
      2 C         140.3580  138.6765  159.0135 C.ar    1  UNL1        0.1179
      3 N         140.0563  138.8614  157.5557 N.ar    1  UNL1       -0.2257
      4 N         138.7184  139.5299  157.4404 N.ar    1  UNL1       -0.0635
      5 N         138.1932  139.7581  158.8269 N.ar    1  UNL1       -0.1287
      6 C         139.8231  138.3648  163.6226 C.ar    1  UNL1        0.1547
      7 C         139.9406  138.3420  162.1274 C.ar    1  UNL1        0.0400
      8 C         139.0891  139.2534  161.2942 C.ar    1  UNL1        0.0241
      9 C         138.1202  140.1877  161.9562 C.ar    1  UNL1        0.0033
     10 C         138.0026  140.2105  163.4515 C.ar    1  UNL1        0.0207
     11 C         138.8542  139.2990  164.2847 C.ar    1  UNL1        0.0994
     12 N         138.7367  139.3218  165.7799 N.ar    1  UNL1       -0.2839
     13 C         137.7654  138.5256  166.6002 C.ar    1  UNL1        0.1826
     14 N         137.9982  138.8565  168.0446 N.ar    1  UNL1       -0.2280
     15 C         139.1134  139.8571  168.1170 C.ar    1  UNL1        0.0786
     16 C         139.6739  140.4636  169.3691 C.3     1  UNL1        0.0538
     17 C         139.5698  140.1446  166.7173 C.ar    1  UNL1        0.0963
     18 C         142.0194  137.9135  164.9350 C.3     1  UNL1        0.2525
     19 O         140.6746  137.4533  164.4558 O.3     1  UNL1       -0.4700
     20 C         140.9377  138.4500  156.4139 C.3     1  UNL1        0.1556
     21 C         141.4476  137.0419  156.3295 C.ar    1  UNL1        0.0022
     22 C         140.7542  136.0446  155.4495 C.ar    1  UNL1       -0.0022
     23 C         141.2641  134.6364  155.3651 C.ar    1  UNL1        0.0044
     24 C         142.4675  134.2256  156.1608 C.ar    1  UNL1        0.0536
     25 C         143.1609  135.2229  157.0408 C.ar    1  UNL1        0.0044
     26 C         142.6510  136.6310  157.1252 C.ar    1  UNL1       -0.0022
     27 C         142.9774  132.8175  156.0765 C.ar    1  UNL1        0.2297
     28 N         142.7882  131.7478  157.1108 N.ar    1  UNL1       -0.2083
     29 C         143.4599  130.5010  156.6166 C.ar    1  UNL1        0.1189
     30 C         143.5993  129.1319  157.2135 C.ar    1  UNL1        0.0223
     31 C         144.3431  128.0621  156.4705 C.ar    1  UNL1        0.0018
     32 C         144.9474  128.3612  155.1306 C.ar    1  UNL1        0.0032
     33 C         144.8080  129.7302  154.5337 C.ar    1  UNL1        0.0391
     34 C         144.0643  130.8001  155.2767 C.ar    1  UNL1        0.1647
     35 O         143.7660  132.2317  154.9429 O.2     1  UNL1       -0.4346
@<TRIPOS>BOND
     1    18    19    1
     2    19     6    1
     3     6     7   ar
     4     7     8   ar
     5     8     1    1
     6     1     2   ar
     7     2     3   ar
     8     3    20    1
     9    20    21    1
    10    21    22   ar
    11    22    23   ar
    12    23    24   ar
    13    24    27    1
    14    27    28   ar
    15    28    29   ar
    16    29    30   ar
    17    30    31   ar
    18    31    32   ar
    19    32    33   ar
    20    33    34   ar
    21    34    35   ar
    22    24    25   ar
    23    25    26   ar
    24     3     4   ar
    25     4     5   ar
    26     8     9   ar
    27     9    10   ar
    28    10    11   ar
    29    11    12    1
    30    12    13   ar
    31    13    14   ar
    32    14    15   ar
    33    15    16    1
    34    15    17   ar
    35    11     6   ar
    36    17    12   ar
    37     5     1   ar
    38    26    21   ar
    39    35    27   ar
    40    34    29   ar
@<TRIPOS>MOLECULE
*****
 35 40 0 0 0
SMALL
GASTEIGER

@<TRIPOS>ATOM
      1 C         143.0550  138.6036  159.6199 C.ar    1  UNL1        0.1233
      2 C         142.2559  137.6590  158.7718 C.ar    1  UNL1        0.1179
      3 N         142.5829  137.9368  157.3344 N.ar    1  UNL1       -0.2257
      4 N         143.5840  139.0531  157.2942 N.ar    1  UNL1       -0.0635
      5 N         143.8758  139.4653  158.7068 N.ar    1  UNL1       -0.1287
      6 C         144.1514  139.3976  163.3505 C.ar    1  UNL1        0.1547
      7 C         144.1699  139.3270  161.8522 C.ar    1  UNL1        0.0400
      8 C         143.0364  138.6742  161.1181 C.ar    1  UNL1        0.0241
      9 C         141.8844  138.0919  161.8822 C.ar    1  UNL1        0.0033
     10 C         141.8658  138.1624  163.3804 C.ar    1  UNL1        0.0207
     11 C         142.9994  138.8153  164.1146 C.ar    1  UNL1        0.0994
     12 N         142.9808  138.8859  165.6128 N.ar    1  UNL1       -0.2839
     13 C         143.7770  138.0225  166.5460 C.ar    1  UNL1        0.1826
     14 N         143.4511  138.4352  167.9508 N.ar    1  UNL1       -0.2280
     15 C         142.4536  139.5536  167.8858 C.ar    1  UNL1        0.0786
     16 C         141.8524  140.2681  169.0597 C.3     1  UNL1        0.0538
     17 C         142.1630  139.8321  166.4408 C.ar    1  UNL1        0.0963
     18 C         145.7001  141.4482  163.7329 C.3     1  UNL1        0.2525
     19 O         145.2849  140.0504  164.0846 O.3     1  UNL1       -0.4700
     20 C         142.0094  137.2236  156.1460 C.3     1  UNL1        0.1556
     21 C         142.4428  135.8226  155.8311 C.ar    1  UNL1        0.0022
     22 C         143.7207  135.2860  156.4046 C.ar    1  UNL1       -0.0022
     23 C         144.1541  133.8849  156.0897 C.ar    1  UNL1        0.0044
     24 C         143.3096  133.0204  155.2012 C.ar    1  UNL1        0.0536
     25 C         142.0317  133.5570  154.6276 C.ar    1  UNL1        0.0044
     26 C         141.5983  134.9581  154.9426 C.ar    1  UNL1       -0.0022
     27 C         143.7430  131.6194  154.8863 C.ar    1  UNL1        0.2297
     28 N         143.6929  130.9629  153.5385 N.ar    1  UNL1       -0.2083
     29 C         144.2216  129.5666  153.6830 C.ar    1  UNL1        0.1189
     30 C         144.4085  128.4565  152.6917 C.ar    1  UNL1        0.0223
     31 C         144.9722  127.1399  153.1376 C.ar    1  UNL1        0.0018
     32 C         145.3491  126.9335  154.5747 C.ar    1  UNL1        0.0032
     33 C         145.1622  128.0436  155.5660 C.ar    1  UNL1        0.0391
     34 C         144.5985  129.3601  155.1202 C.ar    1  UNL1        0.1647
     35 O         144.3027  130.6288  155.8638 O.2     1  UNL1       -0.4346
@<TRIPOS>BOND
     1    18    19    1
     2    19     6    1
     3     6     7   ar
     4     7     8   ar
     5     8     1    1
     6     1     2   ar
     7     2     3   ar
     8     3    20    1
     9    20    21    1
    10    21    22   ar
    11    22    23   ar
    12    23    24   ar
    13    24    27    1
    14    27    28   ar
    15    28    29   ar
    16    29    30   ar
    17    30    31   ar
    18    31    32   ar
    19    32    33   ar
    20    33    34   ar
    21    34    35   ar
    22    24    25   ar
    23    25    26   ar
    24     3     4   ar
    25     4     5   ar
    26     8     9   ar
    27     9    10   ar
    28    10    11   ar
    29    11    12    1
    30    12    13   ar
    31    13    14   ar
    32    14    15   ar
    33    15    16    1
    34    15    17   ar
    35    11     6   ar
    36    17    12   ar
    37     5     1   ar
    38    26    21   ar
    39    35    27   ar
    40    34    29   ar
@<TRIPOS>MOLECULE
*****
 35 40 0 0 0
SMALL
GASTEIGER

@<TRIPOS>ATOM
      1 C         139.0919  141.8827  160.9799 C.ar    1  UNL1        0.1233
      2 C         139.7038  141.0566  159.8877 C.ar    1  UNL1        0.1179
      3 N         139.3083  141.6604  158.5727 N.ar    1  UNL1       -0.2257
      4 N         138.4518  142.8597  158.8522 N.ar    1  UNL1       -0.0635
      5 N         138.3180  142.9972  160.3400 N.ar    1  UNL1       -0.1287
      6 C         140.6506  140.8476  164.4796 C.ar    1  UNL1        0.1547
      7 C         140.5130  141.0928  163.0062 C.ar    1  UNL1        0.0400
      8 C         139.2295  141.6376  162.4532 C.ar    1  UNL1        0.0241
      9 C         138.0836  141.9372  163.3736 C.ar    1  UNL1        0.0033
     10 C         138.2212  141.6920  164.8471 C.ar    1  UNL1        0.0207
     11 C         139.5048  141.1472  165.4001 C.ar    1  UNL1        0.0994
     12 N         139.6424  140.9021  166.8735 N.ar    1  UNL1       -0.2839
     13 C         139.1358  139.7029  167.6189 C.ar    1  UNL1        0.1826
     14 N         139.4911  139.8727  169.0662 N.ar    1  UNL1       -0.2280
     15 C         140.2172  141.1767  169.2154 C.ar    1  UNL1        0.0786
     16 C         140.7553  141.7449  170.4951 C.3     1  UNL1        0.0538
     17 C         140.3107  141.8129  167.8602 C.ar    1  UNL1        0.0963
     18 C         143.1360  141.1922  165.1535 C.3     1  UNL1        0.2525
     19 O         141.9341  140.3029  165.0326 O.3     1  UNL1       -0.4700
     20 C         139.7003  141.1537  157.2164 C.3     1  UNL1        0.1556
     21 C         140.3763  139.8217  157.0799 C.ar    1  UNL1        0.0022
     22 C         139.5715  138.6042  156.7336 C.ar    1  UNL1       -0.0022
     23 C         140.2475  137.2721  156.5971 C.ar    1  UNL1        0.0044
     24 C         141.7283  137.1576  156.8068 C.ar    1  UNL1        0.0536
     25 C         142.5331  138.3750  157.1531 C.ar    1  UNL1        0.0044
     26 C         141.8571  139.7071  157.2896 C.ar    1  UNL1       -0.0022
     27 C         142.4043  135.8255  156.6703 C.ar    1  UNL1        0.2297
     28 N         142.2711  134.8839  155.5103 N.ar    1  UNL1       -0.2083
     29 C         143.1167  133.6776  155.7929 C.ar    1  UNL1        0.1189
     30 C         143.3742  132.4260  155.0073 C.ar    1  UNL1        0.0223
     31 C         144.2875  131.3705  155.5565 C.ar    1  UNL1        0.0018
     32 C         144.9433  131.5665  156.8912 C.ar    1  UNL1        0.0032
     33 C         144.6858  132.8181  157.6768 C.ar    1  UNL1        0.0391
     34 C         143.7725  133.8736  157.1276 C.ar    1  UNL1        0.1647
     35 O         143.3322  135.2011  157.6699 O.2     1  UNL1       -0.4346
@<TRIPOS>BOND
     1    18    19    1
     2    19     6    1
     3     6     7   ar
     4     7     8   ar
     5     8     1    1
     6     1     2   ar
     7     2     3   ar
     8     3    20    1
     9    20    21    1
    10    21    22   ar
    11    22    23   ar
    12    23    24   ar
    13    24    27    1
    14    27    28   ar
    15    28    29   ar
    16    29    30   ar
    17    30    31   ar
    18    31    32   ar
    19    32    33   ar
    20    33    34   ar
    21    34    35   ar
    22    24    25   ar
    23    25    26   ar
    24     3     4   ar
    25     4     5   ar
    26     8     9   ar
    27     9    10   ar
    28    10    11   ar
    29    11    12    1
    30    12    13   ar
    31    13    14   ar
    32    14    15   ar
    33    15    16    1
    34    15    17   ar
    35    11     6   ar
    36    17    12   ar
    37     5     1   ar
    38    26    21   ar
    39    35    27   ar
    40    34    29   ar
@<TRIPOS>MOLECULE
*****
 35 40 0 0 0
SMALL
GASTEIGER

@<TRIPOS>ATOM
      1 C         143.2232  138.8189  159.7278 C.ar    1  UNL1        0.1233
      2 C         142.4773  137.8554  158.8530 C.ar    1  UNL1        0.1179
      3 N         142.8196  138.1646  157.4256 N.ar    1  UNL1       -0.2257
      4 N         143.7770  139.3193  157.4183 N.ar    1  UNL1       -0.0635
      5 N         144.0265  139.7237  158.8411 N.ar    1  UNL1       -0.1287
      6 C         142.1629  138.0455  163.4731 C.ar    1  UNL1        0.1547
      7 C         142.2117  137.9955  161.9747 C.ar    1  UNL1        0.0400
      8 C         143.1743  138.8690  161.2261 C.ar    1  UNL1        0.0241
      9 C         144.0881  139.7925  161.9759 C.ar    1  UNL1        0.0033
     10 C         144.0393  139.8426  163.4743 C.ar    1  UNL1        0.0207
     11 C         143.0767  138.9690  164.2229 C.ar    1  UNL1        0.0994
     12 N         143.0278  139.0190  165.7213 N.ar    1  UNL1       -0.2839
     13 C         143.6726  138.0404  166.6576 C.ar    1  UNL1        0.1826
     14 N         143.3690  138.4730  168.0614 N.ar    1  UNL1       -0.2280
     15 C         142.5365  139.7189  167.9926 C.ar    1  UNL1        0.0786
     16 C         142.0077  140.4917  169.1644 C.3     1  UNL1        0.0538
     17 C         142.3257  140.0564  166.5464 C.ar    1  UNL1        0.0963
     18 C         139.8672  137.7149  164.6437 C.3     1  UNL1        0.2525
     19 O         141.2003  137.1720  164.2217 O.3     1  UNL1       -0.4700
     20 C         142.2963  137.4454  156.2178 C.3     1  UNL1        0.1556
     21 C         142.5118  135.9681  156.0727 C.ar    1  UNL1        0.0022
     22 C         141.4945  135.1284  155.3586 C.ar    1  UNL1       -0.0022
     23 C         141.7099  133.6510  155.2135 C.ar    1  UNL1        0.0044
     24 C         142.9427  133.0134  155.7824 C.ar    1  UNL1        0.0536
     25 C         143.9600  133.8532  156.4965 C.ar    1  UNL1        0.0044
     26 C         143.7445  135.3305  156.6416 C.ar    1  UNL1       -0.0022
     27 C         143.1581  131.5361  155.6373 C.ar    1  UNL1        0.2297
     28 N         144.4618  130.8613  155.3288 N.ar    1  UNL1       -0.2083
     29 C         144.2171  129.3823  155.2761 C.ar    1  UNL1        0.1189
     30 C         145.1311  128.2226  155.0125 C.ar    1  UNL1        0.0223
     31 C         144.5903  126.8236  155.0247 C.ar    1  UNL1        0.0018
     32 C         143.1354  126.5843  155.3006 C.ar    1  UNL1        0.0032
     33 C         142.2214  127.7440  155.5642 C.ar    1  UNL1        0.0391
     34 C         142.7623  129.1430  155.5519 C.ar    1  UNL1        0.1647
     35 O         142.1078  130.4741  155.7752 O.2     1  UNL1       -0.4346
@<TRIPOS>BOND
     1    18    19    1
     2    19     6    1
     3     6     7   ar
     4     7     8   ar
     5     8     1    1
     6     1     2   ar
     7     2     3   ar
     8     3    20    1
     9    20    21    1
    10    21    22   ar
    11    22    23   ar
    12    23    24   ar
    13    24    27    1
    14    27    28   ar
    15    28    29   ar
    16    29    30   ar
    17    30    31   ar
    18    31    32   ar
    19    32    33   ar
    20    33    34   ar
    21    34    35   ar
    22    24    25   ar
    23    25    26   ar
    24     3     4   ar
    25     4     5   ar
    26     8     9   ar
    27     9    10   ar
    28    10    11   ar
    29    11    12    1
    30    12    13   ar
    31    13    14   ar
    32    14    15   ar
    33    15    16    1
    34    15    17   ar
    35    11     6   ar
    36    17    12   ar
    37     5     1   ar
    38    26    21   ar
    39    35    27   ar
    40    34    29   ar
@<TRIPOS>MOLECULE
*****
 35 40 0 0 0
SMALL
GASTEIGER

@<TRIPOS>ATOM
      1 C         139.9302  140.6088  158.2594 C.ar    1  UNL1        0.1233
      2 C         139.5902  140.1824  159.6567 C.ar    1  UNL1        0.1179
      3 N         138.1122  139.9333  159.7187 N.ar    1  UNL1       -0.2257
      4 N         137.5389  140.2058  158.3597 N.ar    1  UNL1       -0.0635
      5 N         138.6624  140.6232  157.4577 N.ar    1  UNL1       -0.1287
      6 C         143.6214  140.2221  156.8541 C.ar    1  UNL1        0.1547
      7 C         142.2538  139.8717  157.3608 C.ar    1  UNL1        0.0400
      8 C         141.2978  140.9591  157.7526 C.ar    1  UNL1        0.0241
      9 C         141.7094  142.3970  157.6377 C.ar    1  UNL1        0.0033
     10 C         143.0770  142.7474  157.1310 C.ar    1  UNL1        0.0207
     11 C         144.0331  141.6599  156.7391 C.ar    1  UNL1        0.0994
     12 N         145.4007  142.0103  156.2324 N.ar    1  UNL1       -0.2839
     13 C         146.5736  142.4215  157.0723 C.ar    1  UNL1        0.1826
     14 N         147.7334  142.6763  156.1558 N.ar    1  UNL1       -0.2280
     15 C         147.2773  142.4228  154.7495 C.ar    1  UNL1        0.0786
     16 C         148.1156  142.5572  153.5130 C.3     1  UNL1        0.0538
     17 C         145.8356  142.0111  154.7969 C.ar    1  UNL1        0.0963
     18 C         144.4422  138.4619  155.1285 C.3     1  UNL1        0.2525
     19 O         144.5775  139.1347  156.4623 O.3     1  UNL1       -0.4700
     20 C         137.3429  139.4897  160.9275 C.3     1  UNL1        0.1556
     21 C         137.8687  139.7845  162.3011 C.ar    1  UNL1        0.0022
     22 C         137.5405  141.0884  162.9659 C.ar    1  UNL1       -0.0022
     23 C         138.0663  141.3832  164.3395 C.ar    1  UNL1        0.0044
     24 C         138.9203  140.3741  165.0482 C.ar    1  UNL1        0.0536
     25 C         139.2485  139.0702  164.3833 C.ar    1  UNL1        0.0044
     26 C         138.7227  138.7754  163.0097 C.ar    1  UNL1       -0.0022
     27 C         139.4461  140.6689  166.4217 C.ar    1  UNL1        0.2297
     28 N         140.1786  141.9100  166.8378 N.ar    1  UNL1       -0.2083
     29 C         140.5170  141.7825  168.2936 C.ar    1  UNL1        0.1189
     30 C         141.2340  142.6977  169.2413 C.ar    1  UNL1        0.0223
     31 C         141.4277  142.2931  170.6726 C.ar    1  UNL1        0.0018
     32 C         140.9044  140.9731  171.1562 C.ar    1  UNL1        0.0032
     33 C         140.1874  140.0578  170.2085 C.ar    1  UNL1        0.0391
     34 C         139.9937  140.4625  168.7772 C.ar    1  UNL1        0.1647
     35 O         139.3319  139.7743  167.6203 O.2     1  UNL1       -0.4346
@<TRIPOS>BOND
     1    18    19    1
     2    19     6    1
     3     6     7   ar
     4     7     8   ar
     5     8     1    1
     6     1     2   ar
     7     2     3   ar
     8     3    20    1
     9    20    21    1
    10    21    22   ar
    11    22    23   ar
    12    23    24   ar
    13    24    27    1
    14    27    28   ar
    15    28    29   ar
    16    29    30   ar
    17    30    31   ar
    18    31    32   ar
    19    32    33   ar
    20    33    34   ar
    21    34    35   ar
    22    24    25   ar
    23    25    26   ar
    24     3     4   ar
    25     4     5   ar
    26     8     9   ar
    27     9    10   ar
    28    10    11   ar
    29    11    12    1
    30    12    13   ar
    31    13    14   ar
    32    14    15   ar
    33    15    16    1
    34    15    17   ar
    35    11     6   ar
    36    17    12   ar
    37     5     1   ar
    38    26    21   ar
    39    35    27   ar
    40    34    29   ar
@<TRIPOS>MOLECULE
*****
 35 40 0 0 0
SMALL
GASTEIGER

@<TRIPOS>ATOM
      1 C         139.0399  140.2206  161.0985 C.ar    1  UNL1        0.1233
      2 C         140.1218  140.1341  160.0632 C.ar    1  UNL1        0.1179
      3 N         139.4705  139.9225  158.7286 N.ar    1  UNL1       -0.2257
      4 N         137.9860  139.8783  158.9392 N.ar    1  UNL1       -0.0635
      5 N         137.7199  140.0625  160.4039 N.ar    1  UNL1       -0.1287
      6 C         140.7575  140.2824  164.6757 C.ar    1  UNL1        0.1547
      7 C         140.5549  140.0742  163.2040 C.ar    1  UNL1        0.0400
      8 C         139.2425  140.4287  162.5701 C.ar    1  UNL1        0.0241
      9 C         138.1327  140.9914  163.4077 C.ar    1  UNL1        0.0033
     10 C         138.3352  141.1995  164.8794 C.ar    1  UNL1        0.0207
     11 C         139.6476  140.8450  165.5133 C.ar    1  UNL1        0.0994
     12 N         139.8502  141.0531  166.9850 N.ar    1  UNL1       -0.2839
     13 C         139.5815  140.0454  168.0631 C.ar    1  UNL1        0.1826
     14 N         139.9223  140.6749  169.3813 N.ar    1  UNL1       -0.2280
     15 C         140.4015  142.0717  169.1178 C.ar    1  UNL1        0.0786
     16 C         140.8471  143.0610  170.1534 C.3     1  UNL1        0.0538
     17 C         140.3570  142.3054  167.6368 C.ar    1  UNL1        0.0963
     18 C         143.1467  140.9646  165.4347 C.3     1  UNL1        0.2525
     19 O         142.0699  139.9279  165.3096 O.3     1  UNL1       -0.4700
     20 C         140.1792  139.7801  157.4143 C.3     1  UNL1        0.1556
     21 C         140.7757  138.4606  157.0229 C.ar    1  UNL1        0.0022
     22 C         142.0895  138.0295  157.6043 C.ar    1  UNL1       -0.0022
     23 C         142.6861  136.7101  157.2129 C.ar    1  UNL1        0.0044
     24 C         141.9688  135.8217  156.2402 C.ar    1  UNL1        0.0536
     25 C         140.6550  136.2528  155.6588 C.ar    1  UNL1        0.0044
     26 C         140.0584  137.5722  156.0502 C.ar    1  UNL1       -0.0022
     27 C         142.5653  134.5022  155.8488 C.ar    1  UNL1        0.2297
     28 N         143.5866  133.7298  156.6302 N.ar    1  UNL1       -0.2083
     29 C         143.8978  132.4737  155.8717 C.ar    1  UNL1        0.1189
     30 C         144.8288  131.3330  156.1578 C.ar    1  UNL1        0.0223
     31 C         144.9310  130.1884  155.1938 C.ar    1  UNL1        0.0018
     32 C         144.1021  130.1845  153.9437 C.ar    1  UNL1        0.0032
     33 C         143.1710  131.3251  153.6575 C.ar    1  UNL1        0.0391
     34 C         143.0689  132.4698  154.6215 C.ar    1  UNL1        0.1647
     35 O         142.2454  133.7234  154.6074 O.2     1  UNL1       -0.4346
@<TRIPOS>BOND
     1    18    19    1
     2    19     6    1
     3     6     7   ar
     4     7     8   ar
     5     8     1    1
     6     1     2   ar
     7     2     3   ar
     8     3    20    1
     9    20    21    1
    10    21    22   ar
    11    22    23   ar
    12    23    24   ar
    13    24    27    1
    14    27    28   ar
    15    28    29   ar
    16    29    30   ar
    17    30    31   ar
    18    31    32   ar
    19    32    33   ar
    20    33    34   ar
    21    34    35   ar
    22    24    25   ar
    23    25    26   ar
    24     3     4   ar
    25     4     5   ar
    26     8     9   ar
    27     9    10   ar
    28    10    11   ar
    29    11    12    1
    30    12    13   ar
    31    13    14   ar
    32    14    15   ar
    33    15    16    1
    34    15    17   ar
    35    11     6   ar
    36    17    12   ar
    37     5     1   ar
    38    26    21   ar
    39    35    27   ar
    40    34    29   ar
@<TRIPOS>MOLECULE
*****
 35 40 0 0 0
SMALL
GASTEIGER

@<TRIPOS>ATOM
      1 C         143.6543  136.9148  155.8856 C.ar    1  UNL1        0.1233
      2 C         142.8529  137.8665  156.7235 C.ar    1  UNL1        0.1179
      3 N         143.6003  139.1653  156.7931 N.ar    1  UNL1       -0.2257
      4 N         144.8636  139.0162  155.9981 N.ar    1  UNL1       -0.0635
      5 N         144.8970  137.6254  155.4373 N.ar    1  UNL1       -0.1287
      6 C         143.1321  132.9955  156.2261 C.ar    1  UNL1        0.1547
      7 C         143.5075  134.4095  156.5575 C.ar    1  UNL1        0.0400
      8 C         143.2789  135.5009  155.5543 C.ar    1  UNL1        0.0241
      9 C         142.6750  135.1784  154.2197 C.ar    1  UNL1        0.0033
     10 C         142.2996  133.7645  153.8882 C.ar    1  UNL1        0.0207
     11 C         142.5282  132.6730  154.8915 C.ar    1  UNL1        0.0994
     12 N         142.1528  131.2590  154.5601 N.ar    1  UNL1       -0.2839
     13 C         143.0310  130.2494  153.8821 C.ar    1  UNL1        0.1826
     14 N         142.2543  128.9729  153.7515 N.ar    1  UNL1       -0.2280
     15 C         140.8961  129.1935  154.3487 C.ar    1  UNL1        0.0786
     16 C         139.7941  128.1793  154.4317 C.3     1  UNL1        0.0538
     17 C         140.8334  130.6064  154.8485 C.ar    1  UNL1        0.0963
     18 C         144.6807  131.1932  157.2765 C.3     1  UNL1        0.2525
     19 O         143.3607  131.9041  157.2293 O.3     1  UNL1       -0.4700
     20 C         143.1615  140.3968  157.5284 C.3     1  UNL1        0.1556
     21 C         142.5748  140.2799  158.9040 C.ar    1  UNL1        0.0022
     22 C         141.1187  140.5642  159.1250 C.ar    1  UNL1       -0.0022
     23 C         140.5321  140.4473  160.5006 C.ar    1  UNL1        0.0044
     24 C         141.4016  140.0461  161.6551 C.ar    1  UNL1        0.0536
     25 C         142.8577  139.7617  161.4341 C.ar    1  UNL1        0.0044
     26 C         143.4443  139.8786  160.0585 C.ar    1  UNL1       -0.0022
     27 C         140.8150  139.9292  163.0307 C.ar    1  UNL1        0.2297
     28 N         139.5351  139.2328  163.3872 N.ar    1  UNL1       -0.2083
     29 C         139.3343  139.3613  164.8681 C.ar    1  UNL1        0.1189
     30 C         138.2485  138.8721  165.7800 C.ar    1  UNL1        0.0223
     31 C         138.3183  139.1588  167.2506 C.ar    1  UNL1        0.0018
     32 C         139.4740  139.9347  167.8094 C.ar    1  UNL1        0.0032
     33 C         140.5599  140.4239  166.8976 C.ar    1  UNL1        0.0391
     34 C         140.4901  140.1372  165.4269 C.ar    1  UNL1        0.1647
     35 O         141.4051  140.4881  164.2914 O.2     1  UNL1       -0.4346
@<TRIPOS>BOND
     1    18    19    1
     2    19     6    1
     3     6     7   ar
     4     7     8   ar
     5     8     1    1
     6     1     2   ar
     7     2     3   ar
     8     3    20    1
     9    20    21    1
    10    21    22   ar
    11    22    23   ar
    12    23    24   ar
    13    24    27    1
    14    27    28   ar
    15    28    29   ar
    16    29    30   ar
    17    30    31   ar
    18    31    32   ar
    19    32    33   ar
    20    33    34   ar
    21    34    35   ar
    22    24    25   ar
    23    25    26   ar
    24     3     4   ar
    25     4     5   ar
    26     8     9   ar
    27     9    10   ar
    28    10    11   ar
    29    11    12    1
    30    12    13   ar
    31    13    14   ar
    32    14    15   ar
    33    15    16    1
    34    15    17   ar
    35    11     6   ar
    36    17    12   ar
    37     5     1   ar
    38    26    21   ar
    39    35    27   ar
    40    34    29   ar
@<TRIPOS>MOLECULE
*****
 35 40 0 0 0
SMALL
GASTEIGER

@<TRIPOS>ATOM
      1 C         142.1840  138.9084  160.3532 C.ar    1  UNL1        0.1233
      2 C         141.5969  138.2863  159.1210 C.ar    1  UNL1        0.1179
      3 N         142.5896  138.4387  158.0068 N.ar    1  UNL1       -0.2257
      4 N         143.7902  139.1548  158.5503 N.ar    1  UNL1       -0.0635
      5 N         143.5396  139.4451  160.0006 N.ar    1  UNL1       -0.1287
      6 C         139.5417  139.7201  163.2008 C.ar    1  UNL1        0.1547
      7 C         140.1954  139.6476  161.8526 C.ar    1  UNL1        0.0400
      8 C         141.5305  138.9809  161.7013 C.ar    1  UNL1        0.0241
      9 C         142.2119  138.3866  162.8982 C.ar    1  UNL1        0.0033
     10 C         141.5584  138.4591  164.2464 C.ar    1  UNL1        0.0207
     11 C         140.2232  139.1259  164.3977 C.ar    1  UNL1        0.0994
     12 N         139.5696  139.1984  165.7458 N.ar    1  UNL1       -0.2839
     13 C         138.3125  138.4899  166.1554 C.ar    1  UNL1        0.1826
     14 N         138.0243  138.8457  167.5838 N.ar    1  UNL1       -0.2280
     15 C         139.1032  139.7742  168.0570 C.ar    1  UNL1        0.0786
     16 C         139.2086  140.3786  169.4258 C.3     1  UNL1        0.0538
     17 C         140.0583  139.9921  166.9210 C.ar    1  UNL1        0.0963
     18 C         138.0619  141.8508  163.0588 C.3     1  UNL1        0.2525
     19 O         138.2066  140.3869  163.3521 O.3     1  UNL1       -0.4700
     20 C         142.4126  137.9590  156.5966 C.3     1  UNL1        0.1556
     21 C         142.2542  136.4939  156.3170 C.ar    1  UNL1        0.0022
     22 C         141.2502  136.0277  155.3048 C.ar    1  UNL1       -0.0022
     23 C         141.0918  134.5625  155.0252 C.ar    1  UNL1        0.0044
     24 C         141.9374  133.5635  155.7579 C.ar    1  UNL1        0.0536
     25 C         142.9414  134.0296  156.7701 C.ar    1  UNL1        0.0044
     26 C         143.0998  135.4948  157.0497 C.ar    1  UNL1       -0.0022
     27 C         141.7790  132.0983  155.4784 C.ar    1  UNL1        0.2297
     28 N         140.6276  131.4568  154.7623 N.ar    1  UNL1       -0.2083
     29 C         140.8811  129.9794  154.7072 C.ar    1  UNL1        0.1189
     30 C         140.0899  128.8463  154.1241 C.ar    1  UNL1        0.0223
     31 C         140.6068  127.4417  154.2230 C.ar    1  UNL1        0.0018
     32 C         141.9149  127.1701  154.9049 C.ar    1  UNL1        0.0032
     33 C         142.7062  128.3032  155.4880 C.ar    1  UNL1        0.0391
     34 C         142.1893  129.7078  155.3891 C.ar    1  UNL1        0.1647
     35 O         142.7441  131.0174  155.8657 O.2     1  UNL1       -0.4346
@<TRIPOS>BOND
     1    18    19    1
     2    19     6    1
     3     6     7   ar
     4     7     8   ar
     5     8     1    1
     6     1     2   ar
     7     2     3   ar
     8     3    20    1
     9    20    21    1
    10    21    22   ar
    11    22    23   ar
    12    23    24   ar
    13    24    27    1
    14    27    28   ar
    15    28    29   ar
    16    29    30   ar
    17    30    31   ar
    18    31    32   ar
    19    32    33   ar
    20    33    34   ar
    21    34    35   ar
    22    24    25   ar
    23    25    26   ar
    24     3     4   ar
    25     4     5   ar
    26     8     9   ar
    27     9    10   ar
    28    10    11   ar
    29    11    12    1
    30    12    13   ar
    31    13    14   ar
    32    14    15   ar
    33    15    16    1
    34    15    17   ar
    35    11     6   ar
    36    17    12   ar
    37     5     1   ar
    38    26    21   ar
    39    35    27   ar
    40    34    29   ar
