@<TRIPOS>MOLECULE
*****
 32 36 0 0 0
SMALL
GASTEIGER

@<TRIPOS>ATOM
      1 C         137.9384  138.8503  162.2921 C.3     1  UNL1        0.0731
      2 N         138.1783  140.1446  163.0113 N.3     1  UNL1       -0.2712
      3 C         137.4514  141.4346  162.7712 C.3     1  UNL1        0.0738
      4 C         138.0111  142.4633  163.7084 C.3     1  UNL1        0.0372
      5 C         137.9079  143.8964  164.1392 C.3     1  UNL1        0.0245
      6 C         138.9168  144.1280  165.2248 C.3     1  UNL1        0.0909
      7 N         139.6436  142.8379  165.4649 N.pl3   1  UNL1       -0.3077
      8 C         139.0839  141.8092  164.5277 C.3     1  UNL1        0.0901
      9 C         139.1872  140.3761  164.0969 C.3     1  UNL1        0.0921
     10 C         140.7380  142.6157  166.4664 C.ar    1  UNL1        0.0485
     11 C         142.1575  142.4660  166.0053 C.ar    1  UNL1        0.0146
     12 C         143.2519  142.2438  167.0068 C.ar    1  UNL1        0.0020
     13 C         142.9268  142.1713  168.4693 C.ar    1  UNL1        0.0104
     14 C         141.5073  142.3211  168.9304 C.ar    1  UNL1        0.0697
     15 C         140.4129  142.5433  167.9290 C.ar    1  UNL1        0.0248
     16 C         141.1822  142.2486  170.3930 C.1     1  UNL1        0.1005
     17 N         140.8571  142.1761  171.8555 N.1     1  UNL1       -0.1908
     18 C         138.9890  138.2949  161.3769 C.3     1  UNL1        0.0294
     19 C         138.9896  138.6654  159.9233 C.3     1  UNL1        0.0666
     20 S         140.2871  138.9171  159.2141 S.3     1  UNL1       -0.0756
     21 C         143.4215  139.4883  161.4311 C.ar    1  UNL1        0.2029
     22 N         143.7109  138.1299  160.8644 N.ar    1  UNL1       -0.1250
     23 N         142.5720  137.7506  159.9649 N.ar    1  UNL1       -0.1220
     24 C         141.5787  138.8746  159.9757 C.ar    1  UNL1        0.1933
     25 N         142.1037  139.9485  160.8818 N.ar    1  UNL1       -0.2860
     26 C         141.4293  141.2535  161.1854 C.3     1  UNL1        0.1341
     27 C         143.6950  138.9554  164.6391 C.3     1  UNL1        0.0556
     28 C         144.4220  140.0073  163.8549 C.ar    1  UNL1        0.1001
     29 N         145.4024  140.9990  164.4075 N.ar    1  UNL1       -0.2085
     30 C         145.8826  141.8568  163.2746 C.ar    1  UNL1        0.2849
     31 O         145.1990  141.3953  162.0217 O.2     1  UNL1       -0.4283
     32 C         144.2963  140.2523  162.3804 C.ar    1  UNL1        0.1964
@<TRIPOS>BOND
     1    27    28    1
     2    28    29   ar
     3    29    30   ar
     4    30    31   ar
     5    31    32   ar
     6    32    21    1
     7    21    22   ar
     8    22    23   ar
     9    23    24   ar
    10    24    20    1
    11    20    19    1
    12    19    18    1
    13    18     1    1
    14     1     2    1
    15     2     3    1
    16     3     4    1
    17     4     5    1
    18     5     6    1
    19     6     7    1
    20     7    10    1
    21    10    11   ar
    22    11    12   ar
    23    12    13   ar
    24    13    14   ar
    25    14    16    1
    26    16    17    3
    27    14    15   ar
    28     7     8    1
    29     8     9    1
    30    24    25   ar
    31    25    26    1
    32    32    28   ar
    33    25    21   ar
    34     9     2    1
    35     8     4    1
    36    15    10   ar
@<TRIPOS>MOLECULE
*****
 32 36 0 0 0
SMALL
GASTEIGER

@<TRIPOS>ATOM
      1 C         137.7256  139.4266  162.3512 C.3     1  UNL1        0.0731
      2 N         138.0592  140.6656  163.1281 N.3     1  UNL1       -0.2712
      3 C         137.4652  142.0264  162.9152 C.3     1  UNL1        0.0738
      4 C         138.0844  142.9632  163.9097 C.3     1  UNL1        0.0372
      5 C         138.0999  144.3832  164.3928 C.3     1  UNL1        0.0245
      6 C         139.0862  144.4790  165.5189 C.3     1  UNL1        0.0909
      7 N         139.6802  143.1181  165.7318 N.pl3   1  UNL1       -0.3077
      8 C         139.0611  142.1813  164.7373 C.3     1  UNL1        0.0901
      9 C         139.0455  140.7613  164.2542 C.3     1  UNL1        0.0921
     10 C         140.7122  142.7573  166.7589 C.ar    1  UNL1        0.0485
     11 C         142.1258  142.4842  166.3381 C.ar    1  UNL1        0.0146
     12 C         143.1577  142.1235  167.3652 C.ar    1  UNL1        0.0020
     13 C         142.7761  142.0359  168.8131 C.ar    1  UNL1        0.0104
     14 C         141.3624  142.3090  169.2341 C.ar    1  UNL1        0.0697
     15 C         140.3305  142.6697  168.2070 C.ar    1  UNL1        0.0248
     16 C         140.9808  142.2213  170.6820 C.1     1  UNL1        0.1005
     17 N         140.5992  142.1337  172.1300 N.1     1  UNL1       -0.1908
     18 C         138.7321  138.3205  162.2349 C.3     1  UNL1        0.0294
     19 C         139.3564  138.0111  160.9065 C.3     1  UNL1        0.0666
     20 S         140.7651  138.4406  160.6216 S.3     1  UNL1       -0.0756
     21 C         142.3323  141.3248  162.6930 C.ar    1  UNL1        0.2029
     22 N         142.8469  140.1248  163.4313 N.ar    1  UNL1       -0.1250
     23 N         142.3224  138.8983  162.7453 N.ar    1  UNL1       -0.1220
     24 C         141.4837  139.3403  161.5829 C.ar    1  UNL1        0.1933
     25 N         141.4898  140.8400  161.5505 N.ar    1  UNL1       -0.2860
     26 C         140.7783  141.7032  160.5512 C.3     1  UNL1        0.1341
     27 C         145.2251  142.5613  163.5605 C.3     1  UNL1        0.0556
     28 C         143.9409  143.3264  163.4355 C.ar    1  UNL1        0.1001
     29 N         143.7609  144.7941  163.6872 N.ar    1  UNL1       -0.2085
     30 C         142.3200  145.1329  163.4440 C.ar    1  UNL1        0.2849
     31 O         141.6095  143.8745  163.0420 O.2     1  UNL1       -0.4283
     32 C         142.6113  142.7580  163.0367 C.ar    1  UNL1        0.1964
@<TRIPOS>BOND
     1    27    28    1
     2    28    29   ar
     3    29    30   ar
     4    30    31   ar
     5    31    32   ar
     6    32    21    1
     7    21    22   ar
     8    22    23   ar
     9    23    24   ar
    10    24    20    1
    11    20    19    1
    12    19    18    1
    13    18     1    1
    14     1     2    1
    15     2     3    1
    16     3     4    1
    17     4     5    1
    18     5     6    1
    19     6     7    1
    20     7    10    1
    21    10    11   ar
    22    11    12   ar
    23    12    13   ar
    24    13    14   ar
    25    14    16    1
    26    16    17    3
    27    14    15   ar
    28     7     8    1
    29     8     9    1
    30    24    25   ar
    31    25    26    1
    32    32    28   ar
    33    25    21   ar
    34     9     2    1
    35     8     4    1
    36    15    10   ar
@<TRIPOS>MOLECULE
*****
 32 36 0 0 0
SMALL
GASTEIGER

@<TRIPOS>ATOM
      1 C         143.5710  138.2450  161.9694 C.3     1  UNL1        0.0731
      2 N         142.3743  138.3114  162.8713 N.3     1  UNL1       -0.2712
      3 C         141.2054  137.3715  162.8559 C.3     1  UNL1        0.0738
      4 C         140.2451  137.8086  163.9220 C.3     1  UNL1        0.0372
      5 C         138.9291  137.4979  164.5714 C.3     1  UNL1        0.0245
      6 C         138.6911  138.5159  165.6471 C.3     1  UNL1        0.0909
      7 N         139.8601  139.4559  165.6624 N.pl3   1  UNL1       -0.3077
      8 C         140.8204  139.0187  164.5963 C.3     1  UNL1        0.0901
      9 C         142.1363  139.3295  163.9469 C.3     1  UNL1        0.0921
     10 C         140.0374  140.6273  166.5824 C.ar    1  UNL1        0.0485
     11 C         140.0678  142.0200  166.0261 C.ar    1  UNL1        0.0146
     12 C         140.2452  143.1914  166.9461 C.ar    1  UNL1        0.0020
     13 C         140.3922  142.9701  168.4223 C.ar    1  UNL1        0.0104
     14 C         140.3618  141.5774  168.9787 C.ar    1  UNL1        0.0697
     15 C         140.1844  140.4060  168.0587 C.ar    1  UNL1        0.0248
     16 C         140.5088  141.3561  170.4550 C.1     1  UNL1        0.1005
     17 N         140.6558  141.1349  171.9312 N.1     1  UNL1       -0.1908
     18 C         143.4298  138.5662  160.5110 C.3     1  UNL1        0.0294
     19 C         144.0091  139.8369  159.9633 C.3     1  UNL1        0.0666
     20 S         143.1411  140.7845  159.1897 S.3     1  UNL1       -0.0756
     21 C         141.1788  143.4718  161.1881 C.ar    1  UNL1        0.2029
     22 N         142.2726  144.3014  160.5835 N.ar    1  UNL1       -0.1250
     23 N         143.1408  143.3957  159.7613 N.ar    1  UNL1       -0.1220
     24 C         142.5836  142.0063  159.8577 C.ar    1  UNL1        0.1933
     25 N         141.3710  142.0533  160.7395 N.ar    1  UNL1       -0.2860
     26 C         140.5031  140.8868  161.1080 C.3     1  UNL1        0.1341
     27 C         141.5863  145.0338  164.0242 C.3     1  UNL1        0.0556
     28 C         140.2722  144.6906  163.3875 C.ar    1  UNL1        0.1001
     29 N         138.9146  145.0052  163.9426 N.ar    1  UNL1       -0.2085
     30 C         137.8883  144.4817  162.9820 C.ar    1  UNL1        0.2849
     31 O         138.6116  143.8436  161.8333 O.2     1  UNL1       -0.4283
     32 C         140.0849  143.9727  162.0839 C.ar    1  UNL1        0.1964
@<TRIPOS>BOND
     1    27    28    1
     2    28    29   ar
     3    29    30   ar
     4    30    31   ar
     5    31    32   ar
     6    32    21    1
     7    21    22   ar
     8    22    23   ar
     9    23    24   ar
    10    24    20    1
    11    20    19    1
    12    19    18    1
    13    18     1    1
    14     1     2    1
    15     2     3    1
    16     3     4    1
    17     4     5    1
    18     5     6    1
    19     6     7    1
    20     7    10    1
    21    10    11   ar
    22    11    12   ar
    23    12    13   ar
    24    13    14   ar
    25    14    16    1
    26    16    17    3
    27    14    15   ar
    28     7     8    1
    29     8     9    1
    30    24    25   ar
    31    25    26    1
    32    32    28   ar
    33    25    21   ar
    34     9     2    1
    35     8     4    1
    36    15    10   ar
@<TRIPOS>MOLECULE
*****
 32 36 0 0 0
SMALL
GASTEIGER

@<TRIPOS>ATOM
      1 C         138.8960  145.5079  162.6594 C.3     1  UNL1        0.0731
      2 N         138.8269  144.1980  163.3870 N.3     1  UNL1       -0.2712
      3 C         138.0486  142.9902  162.9562 C.3     1  UNL1        0.0738
      4 C         138.2645  141.9117  163.9761 C.3     1  UNL1        0.0372
      5 C         137.9170  140.4987  164.3403 C.3     1  UNL1        0.0245
      6 C         138.6140  140.1666  165.6264 C.3     1  UNL1        0.0909
      7 N         139.3923  141.3744  166.0571 N.pl3   1  UNL1       -0.3077
      8 C         139.1763  142.4529  165.0372 C.3     1  UNL1        0.0901
      9 C         139.5238  143.8659  164.6730 C.3     1  UNL1        0.0921
     10 C         140.2380  141.4844  167.2910 C.ar    1  UNL1        0.0485
     11 C         140.3972  142.8095  167.9755 C.ar    1  UNL1        0.0146
     12 C         141.2429  142.9195  169.2095 C.ar    1  UNL1        0.0020
     13 C         141.9295  141.7043  169.7589 C.ar    1  UNL1        0.0104
     14 C         141.7704  140.3791  169.0744 C.ar    1  UNL1        0.0697
     15 C         140.9246  140.2691  167.8404 C.ar    1  UNL1        0.0248
     16 C         142.4570  139.1639  169.6238 C.1     1  UNL1        0.1005
     17 N         143.1435  137.9488  170.1732 N.1     1  UNL1       -0.1908
     18 C         140.1579  145.9083  161.9541 C.3     1  UNL1        0.0294
     19 C         140.3713  145.5210  160.5207 C.3     1  UNL1        0.0666
     20 S         141.4119  144.5004  160.1665 S.3     1  UNL1       -0.0756
     21 C         143.1306  142.3277  162.8852 C.ar    1  UNL1        0.2029
     22 N         143.9875  143.5586  162.9132 N.ar    1  UNL1       -0.1250
     23 N         143.4479  144.5223  161.8982 N.ar    1  UNL1       -0.1220
     24 C         142.2576  143.8870  161.2429 C.ar    1  UNL1        0.1933
     25 N         142.0614  142.5308  161.8528 N.ar    1  UNL1       -0.2860
     26 C         140.9851  141.5497  161.4935 C.3     1  UNL1        0.1341
     27 C         143.5219  142.2957  166.1249 C.3     1  UNL1        0.0556
     28 C         143.4910  141.0934  165.2286 C.ar    1  UNL1        0.1001
     29 N         143.6346  139.6652  165.6640 N.ar    1  UNL1       -0.2085
     30 C         143.5435  138.7972  164.4440 C.ar    1  UNL1        0.2849
     31 O         143.3436  139.6890  163.2546 O.2     1  UNL1       -0.4283
     32 C         143.3112  141.1081  163.7395 C.ar    1  UNL1        0.1964
@<TRIPOS>BOND
     1    27    28    1
     2    28    29   ar
     3    29    30   ar
     4    30    31   ar
     5    31    32   ar
     6    32    21    1
     7    21    22   ar
     8    22    23   ar
     9    23    24   ar
    10    24    20    1
    11    20    19    1
    12    19    18    1
    13    18     1    1
    14     1     2    1
    15     2     3    1
    16     3     4    1
    17     4     5    1
    18     5     6    1
    19     6     7    1
    20     7    10    1
    21    10    11   ar
    22    11    12   ar
    23    12    13   ar
    24    13    14   ar
    25    14    16    1
    26    16    17    3
    27    14    15   ar
    28     7     8    1
    29     8     9    1
    30    24    25   ar
    31    25    26    1
    32    32    28   ar
    33    25    21   ar
    34     9     2    1
    35     8     4    1
    36    15    10   ar
@<TRIPOS>MOLECULE
*****
 32 36 0 0 0
SMALL
GASTEIGER

@<TRIPOS>ATOM
      1 C         144.5317  143.6772  162.3723 C.3     1  UNL1        0.0731
      2 N         143.1894  143.7967  163.0311 N.3     1  UNL1       -0.2712
      3 C         142.0977  144.7486  162.6413 C.3     1  UNL1        0.0738
      4 C         140.9368  144.5255  163.5646 C.3     1  UNL1        0.0372
      5 C         139.5445  144.9759  163.8944 C.3     1  UNL1        0.0245
      6 C         139.0583  144.1645  165.0586 C.3     1  UNL1        0.0909
      7 N         140.1502  143.2126  165.4483 N.pl3   1  UNL1       -0.3077
      8 C         141.3111  143.4357  164.5250 C.3     1  UNL1        0.0901
      9 C         142.7033  142.9853  164.1953 C.3     1  UNL1        0.0921
     10 C         140.0914  142.2132  166.5653 C.ar    1  UNL1        0.0485
     11 C         139.5093  140.8520  166.3238 C.ar    1  UNL1        0.0146
     12 C         139.4505  139.8525  167.4408 C.ar    1  UNL1        0.0020
     13 C         139.9738  140.2142  168.7992 C.ar    1  UNL1        0.0104
     14 C         140.5558  141.5755  169.0407 C.ar    1  UNL1        0.0697
     15 C         140.6146  142.5749  167.9238 C.ar    1  UNL1        0.0248
     16 C         141.0791  141.9372  170.3991 C.1     1  UNL1        0.1005
     17 N         141.6023  142.2989  171.7576 N.1     1  UNL1       -0.1908
     18 C         144.8059  142.5437  161.4290 C.3     1  UNL1        0.0294
     19 C         144.2403  142.5702  160.0399 C.3     1  UNL1        0.0666
     20 S         143.8260  141.2914  159.3743 S.3     1  UNL1       -0.0756
     21 C         142.1203  138.7160  161.7245 C.ar    1  UNL1        0.2029
     22 N         143.3012  137.9284  161.2397 N.ar    1  UNL1       -0.1250
     23 N         144.0839  138.7973  160.3003 N.ar    1  UNL1       -0.1220
     24 C         143.3867  140.1219  160.2045 C.ar    1  UNL1        0.1933
     25 N         142.1731  140.0717  161.0847 N.ar    1  UNL1       -0.2860
     26 C         141.1857  141.1823  161.2891 C.3     1  UNL1        0.1341
     27 C         138.9969  138.1092  160.9991 C.3     1  UNL1        0.0556
     28 C         139.6351  137.9539  162.3477 C.ar    1  UNL1        0.1001
     29 N         138.9498  137.4924  163.5996 N.ar    1  UNL1       -0.2085
     30 C         139.9618  137.4860  164.7067 C.ar    1  UNL1        0.2849
     31 O         141.2727  137.9437  164.1390 O.2     1  UNL1       -0.4283
     32 C         141.0707  138.2328  162.6811 C.ar    1  UNL1        0.1964
@<TRIPOS>BOND
     1    27    28    1
     2    28    29   ar
     3    29    30   ar
     4    30    31   ar
     5    31    32   ar
     6    32    21    1
     7    21    22   ar
     8    22    23   ar
     9    23    24   ar
    10    24    20    1
    11    20    19    1
    12    19    18    1
    13    18     1    1
    14     1     2    1
    15     2     3    1
    16     3     4    1
    17     4     5    1
    18     5     6    1
    19     6     7    1
    20     7    10    1
    21    10    11   ar
    22    11    12   ar
    23    12    13   ar
    24    13    14   ar
    25    14    16    1
    26    16    17    3
    27    14    15   ar
    28     7     8    1
    29     8     9    1
    30    24    25   ar
    31    25    26    1
    32    32    28   ar
    33    25    21   ar
    34     9     2    1
    35     8     4    1
    36    15    10   ar
@<TRIPOS>MOLECULE
*****
 32 36 0 0 0
SMALL
GASTEIGER

@<TRIPOS>ATOM
      1 C         137.9885  144.0054  162.9837 C.3     1  UNL1        0.0731
      2 N         138.2490  142.7081  163.6903 N.3     1  UNL1       -0.2712
      3 C         138.0066  141.3366  163.1333 C.3     1  UNL1        0.0738
      4 C         138.4054  140.3355  164.1768 C.3     1  UNL1        0.0372
      5 C         138.5021  138.8692  164.4774 C.3     1  UNL1        0.0245
      6 C         139.0506  138.7156  165.8651 C.3     1  UNL1        0.0909
      7 N         139.2929  140.0872  166.4221 N.pl3   1  UNL1       -0.3077
      8 C         138.8942  141.0883  165.3786 C.3     1  UNL1        0.0901
      9 C         138.7975  142.5547  165.0779 C.3     1  UNL1        0.0921
     10 C         139.8382  140.4023  167.7834 C.ar    1  UNL1        0.0485
     11 C         139.0631  140.0190  169.0090 C.ar    1  UNL1        0.0146
     12 C         139.6084  140.3341  170.3704 C.ar    1  UNL1        0.0020
     13 C         140.9289  141.0325  170.5062 C.ar    1  UNL1        0.0104
     14 C         141.7041  141.4159  169.2806 C.ar    1  UNL1        0.0697
     15 C         141.1588  141.1008  167.9192 C.ar    1  UNL1        0.0248
     16 C         143.0246  142.1143  169.4163 C.1     1  UNL1        0.1005
     17 N         144.3451  142.8127  169.5521 N.1     1  UNL1       -0.1908
     18 C         138.9709  145.1330  163.0996 C.3     1  UNL1        0.0294
     19 C         139.8240  145.5084  161.9244 C.3     1  UNL1        0.0666
     20 S         141.2060  144.9411  161.7891 S.3     1  UNL1       -0.0756
     21 C         142.1582  141.3658  162.9623 C.ar    1  UNL1        0.2029
     22 N         141.4334  141.0678  161.6832 N.ar    1  UNL1       -0.1250
     23 N         140.9885  142.3708  161.0881 N.ar    1  UNL1       -0.1220
     24 C         141.4383  143.4742  161.9993 C.ar    1  UNL1        0.1933
     25 N         142.1612  142.8531  163.1576 N.ar    1  UNL1       -0.2860
     26 C         142.7787  143.5899  164.3090 C.3     1  UNL1        0.1341
     27 C         145.3460  140.9963  163.5549 C.3     1  UNL1        0.0556
     28 C         144.2374  140.1844  164.1565 C.ar    1  UNL1        0.1001
     29 N         144.3994  139.0601  165.1361 N.ar    1  UNL1       -0.2085
     30 C         143.0343  138.5351  165.4692 C.ar    1  UNL1        0.2849
     31 O         142.0286  139.3349  164.6954 O.2     1  UNL1       -0.4283
     32 C         142.7722  140.3542  163.8841 C.ar    1  UNL1        0.1964
@<TRIPOS>BOND
     1    27    28    1
     2    28    29   ar
     3    29    30   ar
     4    30    31   ar
     5    31    32   ar
     6    32    21    1
     7    21    22   ar
     8    22    23   ar
     9    23    24   ar
    10    24    20    1
    11    20    19    1
    12    19    18    1
    13    18     1    1
    14     1     2    1
    15     2     3    1
    16     3     4    1
    17     4     5    1
    18     5     6    1
    19     6     7    1
    20     7    10    1
    21    10    11   ar
    22    11    12   ar
    23    12    13   ar
    24    13    14   ar
    25    14    16    1
    26    16    17    3
    27    14    15   ar
    28     7     8    1
    29     8     9    1
    30    24    25   ar
    31    25    26    1
    32    32    28   ar
    33    25    21   ar
    34     9     2    1
    35     8     4    1
    36    15    10   ar
@<TRIPOS>MOLECULE
*****
 32 36 0 0 0
SMALL
GASTEIGER

@<TRIPOS>ATOM
      1 C         139.7312  145.1595  163.4769 C.3     1  UNL1        0.0731
      2 N         139.4996  143.8190  164.1089 N.3     1  UNL1       -0.2712
      3 C         138.7554  142.6710  163.4939 C.3     1  UNL1        0.0738
      4 C         138.7675  141.5337  164.4719 C.3     1  UNL1        0.0372
      5 C         138.3149  140.1213  164.6962 C.3     1  UNL1        0.0245
      6 C         138.7869  139.6934  166.0542 C.3     1  UNL1        0.0909
      7 N         139.5312  140.8415  166.6692 N.pl3   1  UNL1       -0.3077
      8 C         139.5191  141.9788  165.6913 C.3     1  UNL1        0.0901
      9 C         139.9717  143.3912  165.4669 C.3     1  UNL1        0.0921
     10 C         140.1746  140.8505  168.0242 C.ar    1  UNL1        0.0485
     11 C         139.5000  140.1719  169.1793 C.ar    1  UNL1        0.0146
     12 C         140.1433  140.1809  170.5343 C.ar    1  UNL1        0.0020
     13 C         141.4612  140.8687  170.7342 C.ar    1  UNL1        0.0104
     14 C         142.1359  141.5475  169.5791 C.ar    1  UNL1        0.0697
     15 C         141.4925  141.5384  168.2241 C.ar    1  UNL1        0.0248
     16 C         143.4538  142.2353  169.7790 C.1     1  UNL1        0.1005
     17 N         144.7717  142.9230  169.9789 N.1     1  UNL1       -0.1908
     18 C         141.0464  145.4630  162.8225 C.3     1  UNL1        0.0294
     19 C         142.3023  145.4948  163.6421 C.3     1  UNL1        0.0666
     20 S         143.3560  144.4464  163.4408 S.3     1  UNL1       -0.0756
     21 C         142.2591  140.7246  163.5485 C.ar    1  UNL1        0.2029
     22 N         142.9126  140.8733  164.8905 N.ar    1  UNL1       -0.1250
     23 N         143.4030  142.2855  165.0135 N.ar    1  UNL1       -0.1220
     24 C         143.0526  143.0097  163.7475 C.ar    1  UNL1        0.1933
     25 N         142.3457  142.0451  162.8421 N.ar    1  UNL1       -0.2860
     26 C         141.8180  142.3478  161.4710 C.3     1  UNL1        0.1341
     27 C         141.9650  137.8857  165.1307 C.3     1  UNL1        0.0556
     28 C         141.4945  138.1701  163.7351 C.ar    1  UNL1        0.1001
     29 N         140.8061  137.1996  162.8217 N.ar    1  UNL1       -0.2085
     30 C         140.5159  137.9047  161.5300 C.ar    1  UNL1        0.2849
     31 O         141.0248  139.3110  161.6450 O.2     1  UNL1       -0.4283
     32 C         141.6296  139.4750  163.0078 C.ar    1  UNL1        0.1964
@<TRIPOS>BOND
     1    27    28    1
     2    28    29   ar
     3    29    30   ar
     4    30    31   ar
     5    31    32   ar
     6    32    21    1
     7    21    22   ar
     8    22    23   ar
     9    23    24   ar
    10    24    20    1
    11    20    19    1
    12    19    18    1
    13    18     1    1
    14     1     2    1
    15     2     3    1
    16     3     4    1
    17     4     5    1
    18     5     6    1
    19     6     7    1
    20     7    10    1
    21    10    11   ar
    22    11    12   ar
    23    12    13   ar
    24    13    14   ar
    25    14    16    1
    26    16    17    3
    27    14    15   ar
    28     7     8    1
    29     8     9    1
    30    24    25   ar
    31    25    26    1
    32    32    28   ar
    33    25    21   ar
    34     9     2    1
    35     8     4    1
    36    15    10   ar
@<TRIPOS>MOLECULE
*****
 32 36 0 0 0
SMALL
GASTEIGER

@<TRIPOS>ATOM
      1 C         137.9206  143.1880  162.2848 C.3     1  UNL1        0.0731
      2 N         138.3074  142.1698  163.3162 N.3     1  UNL1       -0.2712
      3 C         137.9411  140.7153  163.2999 C.3     1  UNL1        0.0738
      4 C         138.5357  140.0740  164.5186 C.3     1  UNL1        0.0372
      5 C         138.6769  138.7787  165.2617 C.3     1  UNL1        0.0245
      6 C         139.4978  139.0363  166.4905 C.3     1  UNL1        0.0909
      7 N         139.8641  140.4909  166.5067 N.pl3   1  UNL1       -0.3077
      8 C         139.2695  141.1322  165.2880 C.3     1  UNL1        0.0901
      9 C         139.1283  142.4275  164.5449 C.3     1  UNL1        0.0921
     10 C         140.6814  141.1826  167.5571 C.ar    1  UNL1        0.0485
     11 C         142.0494  140.6719  167.9000 C.ar    1  UNL1        0.0146
     12 C         142.8668  141.3636  168.9505 C.ar    1  UNL1        0.0020
     13 C         142.3161  142.5661  169.6581 C.ar    1  UNL1        0.0104
     14 C         140.9480  143.0769  169.3152 C.ar    1  UNL1        0.0697
     15 C         140.1307  142.3852  168.2648 C.ar    1  UNL1        0.0248
     16 C         140.3973  144.2794  170.0228 C.1     1  UNL1        0.1005
     17 N         139.8466  145.4819  170.7304 N.1     1  UNL1       -0.1908
     18 C         138.5897  144.5304  162.2683 C.3     1  UNL1        0.0294
     19 C         139.5993  144.8523  161.2067 C.3     1  UNL1        0.0666
     20 S         141.0254  145.1223  161.5852 S.3     1  UNL1       -0.0756
     21 C         142.7177  142.4344  163.8162 C.ar    1  UNL1        0.2029
     22 N         142.7022  143.6132  164.7438 N.ar    1  UNL1       -0.1250
     23 N         142.0664  144.7636  164.0209 N.ar    1  UNL1       -0.1220
     24 C         141.6889  144.2957  162.6466 C.ar    1  UNL1        0.1933
     25 N         142.0914  142.8563  162.5201 N.ar    1  UNL1       -0.2860
     26 C         141.9011  141.9906  161.3100 C.3     1  UNL1        0.1341
     27 C         145.8653  141.5737  163.7757 C.3     1  UNL1        0.0556
     28 C         144.7103  140.6773  164.1112 C.ar    1  UNL1        0.1001
     29 N         144.7994  139.2279  164.4869 N.ar    1  UNL1       -0.2085
     30 C         143.4076  138.7277  164.7377 C.ar    1  UNL1        0.2849
     31 O         142.4585  139.8680  164.5171 O.2     1  UNL1       -0.4283
     32 C         143.2636  141.0729  164.1298 C.ar    1  UNL1        0.1964
@<TRIPOS>BOND
     1    27    28    1
     2    28    29   ar
     3    29    30   ar
     4    30    31   ar
     5    31    32   ar
     6    32    21    1
     7    21    22   ar
     8    22    23   ar
     9    23    24   ar
    10    24    20    1
    11    20    19    1
    12    19    18    1
    13    18     1    1
    14     1     2    1
    15     2     3    1
    16     3     4    1
    17     4     5    1
    18     5     6    1
    19     6     7    1
    20     7    10    1
    21    10    11   ar
    22    11    12   ar
    23    12    13   ar
    24    13    14   ar
    25    14    16    1
    26    16    17    3
    27    14    15   ar
    28     7     8    1
    29     8     9    1
    30    24    25   ar
    31    25    26    1
    32    32    28   ar
    33    25    21   ar
    34     9     2    1
    35     8     4    1
    36    15    10   ar
@<TRIPOS>MOLECULE
*****
 32 36 0 0 0
SMALL
GASTEIGER

@<TRIPOS>ATOM
      1 C         138.9178  142.6331  159.1604 C.3     1  UNL1        0.0731
      2 N         138.9612  141.4357  160.0628 N.3     1  UNL1       -0.2712
      3 C         137.9342  140.3445  160.1298 C.3     1  UNL1        0.0738
      4 C         138.3776  139.3537  161.1651 C.3     1  UNL1        0.0372
      5 C         138.0169  138.0669  161.8463 C.3     1  UNL1        0.0245
      6 C         139.0950  137.7504  162.8401 C.3     1  UNL1        0.0909
      7 N         140.1221  138.8417  162.7730 N.pl3   1  UNL1       -0.3077
      8 C         139.6786  139.8325  161.7378 C.3     1  UNL1        0.0901
      9 C         140.0393  141.1193  161.0565 C.3     1  UNL1        0.0921
     10 C         141.3729  138.9271  163.5965 C.ar    1  UNL1        0.0485
     11 C         141.5008  138.1168  164.8523 C.ar    1  UNL1        0.0146
     12 C         142.7516  138.2022  165.6758 C.ar    1  UNL1        0.0020
     13 C         143.8745  139.0978  165.2435 C.ar    1  UNL1        0.0104
     14 C         143.7466  139.9082  163.9877 C.ar    1  UNL1        0.0697
     15 C         142.4958  139.8228  163.1642 C.ar    1  UNL1        0.0248
     16 C         144.8695  140.8038  163.5554 C.1     1  UNL1        0.1005
     17 N         145.9924  141.6995  163.1231 N.1     1  UNL1       -0.1908
     18 C         140.1389  143.4870  158.9880 C.3     1  UNL1        0.0294
     19 C         140.1161  144.9240  159.4178 C.3     1  UNL1        0.0666
     20 S         140.6073  145.3065  160.7824 S.3     1  UNL1       -0.0756
     21 C         139.7833  143.4087  164.0665 C.ar    1  UNL1        0.2029
     22 N         138.4287  143.9267  163.6833 N.ar    1  UNL1       -0.1250
     23 N         138.5726  144.7007  162.4065 N.ar    1  UNL1       -0.1220
     24 C         140.0160  144.6610  162.0005 C.ar    1  UNL1        0.1933
     25 N         140.7644  143.8626  163.0264 N.ar    1  UNL1       -0.2860
     26 C         142.2354  143.5694  163.0144 C.3     1  UNL1        0.1341
     27 C         138.2180  140.7043  165.0074 C.3     1  UNL1        0.0556
     28 C         139.3816  141.3390  165.7097 C.ar    1  UNL1        0.1001
     29 N         140.0300  140.8421  166.9677 N.ar    1  UNL1       -0.2085
     30 C         141.1503  141.7780  167.3127 C.ar    1  UNL1        0.2849
     31 O         141.1942  142.8534  166.2679 O.2     1  UNL1       -0.4283
     32 C         140.1011  142.5821  165.2772 C.ar    1  UNL1        0.1964
@<TRIPOS>BOND
     1    27    28    1
     2    28    29   ar
     3    29    30   ar
     4    30    31   ar
     5    31    32   ar
     6    32    21    1
     7    21    22   ar
     8    22    23   ar
     9    23    24   ar
    10    24    20    1
    11    20    19    1
    12    19    18    1
    13    18     1    1
    14     1     2    1
    15     2     3    1
    16     3     4    1
    17     4     5    1
    18     5     6    1
    19     6     7    1
    20     7    10    1
    21    10    11   ar
    22    11    12   ar
    23    12    13   ar
    24    13    14   ar
    25    14    16    1
    26    16    17    3
    27    14    15   ar
    28     7     8    1
    29     8     9    1
    30    24    25   ar
    31    25    26    1
    32    32    28   ar
    33    25    21   ar
    34     9     2    1
    35     8     4    1
    36    15    10   ar
