@<TRIPOS>MOLECULE
*****
 41 47 0 0 0
SMALL
GASTEIGER

@<TRIPOS>ATOM
      1 C         137.7466  139.5524  161.8727 C.3     1  UNL1        0.0700
      2 C         137.6650  140.6795  162.8591 C.3     1  UNL1        0.0193
      3 C         138.2555  140.5215  164.2289 C.3     1  UNL1        0.0287
      4 C         138.9276  139.2364  164.6123 C.3     1  UNL1        0.0955
      5 C         139.0092  138.1093  163.6259 C.3     1  UNL1        0.0287
      6 C         138.4186  138.2674  162.2561 C.3     1  UNL1        0.0193
      7 O         138.6187  139.2762  163.8501 O.3     1  UNL1       -0.3571
      8 C         138.0848  139.4190  162.6115 C.3     1  UNL1        0.1562
      9 N         137.1561  139.7103  160.5028 N.3     1  UNL1       -0.2925
     10 H         136.8830  138.7785  160.1907 H       1  UNL1        0.1236
     11 C         137.9727  140.3147  159.3993 C.3     1  UNL1        0.1161
     12 O         141.7158  134.9735  155.1319 O.2     1  UNL1       -0.2707
     13 C         141.7468  136.0993  156.1227 C.2     1  UNL1        0.2718
     14 C         143.0565  136.5705  156.6817 C.3     1  UNL1        0.2898
     15 O         143.0876  137.6963  157.6725 O.3     1  UNL1       -0.4627
     16 C         141.8089  138.3509  158.1042 C.ar    1  UNL1        0.1716
     17 C         141.8399  139.4767  159.0949 C.ar    1  UNL1        0.0524
     18 C         140.5611  140.1313  159.5266 C.ar    1  UNL1        0.0757
     19 CL        140.5922  141.2571  160.5174 Cl      1  UNL1       -0.0809
     20 C         139.2514  139.6601  158.9676 C.ar    1  UNL1        0.0870
     21 N         139.2204  138.5343  157.9768 N.ar    1  UNL1       -0.2296
     22 C         140.4991  137.8797  157.5451 C.ar    1  UNL1        0.1683
     23 N         140.4681  136.7539  156.5544 N.am    1  UNL1       -0.2639
     24 H         139.6084  136.4446  156.1875 H       1  UNL1        0.1565
     25 C         139.5181  139.0785  165.9821 C.3     1  UNL1        0.0604
     26 C         140.6222  139.9885  166.4324 C.3     1  UNL1        0.1335
     27 O         141.1779  139.7336  165.0626 O.3     1  UNL1       -0.3806
     28 C         141.8425  140.8453  166.5963 C.3     1  UNL1        0.1402
     29 N         141.8101  141.4395  167.9732 N.ar    1  UNL1       -0.2915
     30 C         142.7498  142.3631  168.6901 C.ar    1  UNL1        0.2611
     31 O         143.9901  142.8526  168.0031 O.2     1  UNL1       -0.2670
     32 C         142.4492  142.7971  170.0941 C.ar    1  UNL1        0.0623
     33 C         141.2089  142.3076  170.7811 C.ar    1  UNL1        0.0254
     34 C         140.2692  141.3841  170.0642 C.ar    1  UNL1        0.0972
     35 N         138.9746  140.7461  170.4969 N.ar    1  UNL1       -0.2400
     36 C         138.1330  139.8309  169.6577 C.ar    1  UNL1        0.1282
     37 C         138.5636  139.4845  168.2632 C.ar    1  UNL1        0.1588
     38 F         137.7221  138.5694  167.4241 F       1  UNL1       -0.2027
     39 C         139.8357  140.0533  167.7080 C.ar    1  UNL1        0.0500
     40 C         140.5698  140.9500  168.6603 C.ar    1  UNL1        0.0806
     41 H         142.0102  140.2202  164.9557 H       1  UNL1        0.2108
@<TRIPOS>BOND
     1    12    13    2
     2    13    14    1
     3    14    15    1
     4    15    16    1
     5    16    17   ar
     6    17    18   ar
     7    18    19    1
     8    18    20   ar
     9    20    11    1
    10    11     9    1
    11     9     1    1
    12     1     2    1
    13     2     3    1
    14     3     4    1
    15     4    25    1
    16    25    26    1
    17    26    27    1
    18    26    28    1
    19    28    29    1
    20    29    30   ar
    21    30    31    2
    22    30    32   ar
    23    32    33   ar
    24    33    34   ar
    25    34    35   ar
    26    35    36   ar
    27    36    37   ar
    28    37    38    1
    29    37    39   ar
    30    39    40   ar
    31     4     5    1
    32     5     6    1
    33     4     7    1
    34     7     8    1
    35    20    21   ar
    36    21    22   ar
    37    22    23    1
    38    23    13   am
    39    22    16   ar
    40     6     1    1
    41     8     1    1
    42    39    26    1
    43    40    29   ar
    44    40    34   ar
    45     9    10    1
    46    27    41    1
    47    23    24    1
@<TRIPOS>MOLECULE
*****
 41 47 0 0 0
SMALL
GASTEIGER

@<TRIPOS>ATOM
      1 C         137.7623  139.5021  162.0317 C.3     1  UNL1        0.0700
      2 C         137.6596  140.6264  163.0194 C.3     1  UNL1        0.0193
      3 C         138.2620  140.4820  164.3855 C.3     1  UNL1        0.0287
      4 C         138.9671  139.2132  164.7640 C.3     1  UNL1        0.0955
      5 C         139.0698  138.0889  163.7764 C.3     1  UNL1        0.0287
      6 C         138.4674  138.2334  162.4102 C.3     1  UNL1        0.0193
      7 O         138.6527  139.2459  164.0037 O.3     1  UNL1       -0.3571
      8 C         138.1081  139.3765  162.7685 C.3     1  UNL1        0.1562
      9 N         137.1599  139.6465  160.6656 N.3     1  UNL1       -0.2925
     10 H         136.9769  138.7033  160.3232 H       1  UNL1        0.1236
     11 C         137.9157  140.3606  159.5844 C.3     1  UNL1        0.1161
     12 O         143.9961  144.5018  162.1594 O.2     1  UNL1       -0.2707
     13 C         143.4519  143.3132  161.4236 C.2     1  UNL1        0.2718
     14 C         144.3903  142.3166  160.8105 C.3     1  UNL1        0.2898
     15 O         143.8462  141.1280  160.0747 O.3     1  UNL1       -0.4627
     16 C         142.3636  140.9362  159.9522 C.ar    1  UNL1        0.1716
     17 C         141.8194  139.7477  159.2165 C.ar    1  UNL1        0.0524
     18 C         140.3368  139.5558  159.0939 C.ar    1  UNL1        0.0757
     19 CL        139.7927  138.3672  158.3581 Cl      1  UNL1       -0.0809
     20 C         139.3983  140.5525  159.7071 C.ar    1  UNL1        0.0870
     21 N         139.9425  141.7410  160.4428 N.ar    1  UNL1       -0.2296
     22 C         141.4251  141.9328  160.5653 C.ar    1  UNL1        0.1683
     23 N         141.9692  143.1213  161.3011 N.am    1  UNL1       -0.2639
     24 H         141.3533  143.7755  161.7035 H       1  UNL1        0.1565
     25 C         139.5694  139.0688  166.1301 C.3     1  UNL1        0.0604
     26 C         140.6834  139.9774  166.5585 C.3     1  UNL1        0.1335
     27 O         141.2419  139.6744  165.1997 O.3     1  UNL1       -0.3806
     28 C         141.9141  140.8226  166.7028 C.3     1  UNL1        0.1402
     29 N         141.8834  141.4581  168.0612 N.ar    1  UNL1       -0.2915
     30 C         142.8319  142.3903  168.7549 C.ar    1  UNL1        0.2611
     31 O         144.0817  142.8428  168.0597 O.2     1  UNL1       -0.2670
     32 C         142.5307  142.8700  170.1438 C.ar    1  UNL1        0.0623
     33 C         141.2809  142.4174  170.8391 C.ar    1  UNL1        0.0254
     34 C         140.3324  141.4852  170.1454 C.ar    1  UNL1        0.0972
     35 N         139.0275  140.8774  170.5905 N.ar    1  UNL1       -0.2400
     36 C         138.1778  139.9487  169.7748 C.ar    1  UNL1        0.1282
     37 C         138.6100  139.5552  168.3934 C.ar    1  UNL1        0.1588
     38 F         137.7603  138.6264  167.5777 F       1  UNL1       -0.2027
     39 C         139.8920  140.0904  167.8277 C.ar    1  UNL1        0.0500
     40 C         140.6336  141.0055  168.7565 C.ar    1  UNL1        0.0806
     41 H         142.0810  140.1466  165.0824 H       1  UNL1        0.2108
@<TRIPOS>BOND
     1    12    13    2
     2    13    14    1
     3    14    15    1
     4    15    16    1
     5    16    17   ar
     6    17    18   ar
     7    18    19    1
     8    18    20   ar
     9    20    11    1
    10    11     9    1
    11     9     1    1
    12     1     2    1
    13     2     3    1
    14     3     4    1
    15     4    25    1
    16    25    26    1
    17    26    27    1
    18    26    28    1
    19    28    29    1
    20    29    30   ar
    21    30    31    2
    22    30    32   ar
    23    32    33   ar
    24    33    34   ar
    25    34    35   ar
    26    35    36   ar
    27    36    37   ar
    28    37    38    1
    29    37    39   ar
    30    39    40   ar
    31     4     5    1
    32     5     6    1
    33     4     7    1
    34     7     8    1
    35    20    21   ar
    36    21    22   ar
    37    22    23    1
    38    23    13   am
    39    22    16   ar
    40     6     1    1
    41     8     1    1
    42    39    26    1
    43    40    29   ar
    44    40    34   ar
    45     9    10    1
    46    27    41    1
    47    23    24    1
@<TRIPOS>MOLECULE
*****
 41 47 0 0 0
SMALL
GASTEIGER

@<TRIPOS>ATOM
      1 C         138.1713  139.6492  161.1119 C.3     1  UNL1        0.0700
      2 C         138.4380  140.8023  162.0336 C.3     1  UNL1        0.0193
      3 C         139.2131  140.5868  163.2996 C.3     1  UNL1        0.0287
      4 C         139.7216  139.2182  163.6440 C.3     1  UNL1        0.0955
      5 C         139.4549  138.0651  162.7224 C.3     1  UNL1        0.0287
      6 C         138.6798  138.2807  161.4564 C.3     1  UNL1        0.0193
      7 O         139.3016  139.2873  162.9391 O.3     1  UNL1       -0.3571
      8 C         138.6008  139.4822  161.7944 C.3     1  UNL1        0.1562
      9 N         137.3962  139.8647  159.8459 N.3     1  UNL1       -0.2925
     10 H         136.9388  138.9799  159.6265 H       1  UNL1        0.1236
     11 C         138.1038  140.3072  158.5995 C.3     1  UNL1        0.1161
     12 O         142.0174  134.4704  155.2282 O.2     1  UNL1       -0.2707
     13 C         142.0135  135.7790  155.9615 C.2     1  UNL1        0.2718
     14 C         143.3102  136.4503  156.3044 C.3     1  UNL1        0.2898
     15 O         143.3064  137.7589  157.0378 O.3     1  UNL1       -0.4627
     16 C         142.0058  138.3959  157.4282 C.ar    1  UNL1        0.1716
     17 C         142.0019  139.7044  158.1616 C.ar    1  UNL1        0.0524
     18 C         140.7012  140.3415  158.5520 C.ar    1  UNL1        0.0757
     19 CL        140.6974  141.6501  159.2854 Cl      1  UNL1       -0.0809
     20 C         139.4045  139.6701  158.2091 C.ar    1  UNL1        0.0870
     21 N         139.4084  138.3616  157.4757 N.ar    1  UNL1       -0.2296
     22 C         140.7090  137.7245  157.0853 C.ar    1  UNL1        0.1683
     23 N         140.7128  136.4160  156.3520 N.am    1  UNL1       -0.2639
     24 H         139.8617  135.9754  156.1269 H       1  UNL1        0.1565
     25 C         140.4966  139.0027  164.9100 C.3     1  UNL1        0.0604
     26 C         139.8763  139.3343  166.2349 C.3     1  UNL1        0.1335
     27 O         138.8257  138.3509  165.8115 O.3     1  UNL1       -0.3806
     28 C         139.0364  139.4603  167.4712 C.3     1  UNL1        0.1402
     29 N         139.6975  140.4522  168.3817 N.ar    1  UNL1       -0.2915
     30 C         139.3239  140.9748  169.7371 C.ar    1  UNL1        0.2611
     31 O         138.0753  140.4878  170.4108 O.2     1  UNL1       -0.2670
     32 C         140.1990  141.9845  170.4189 C.ar    1  UNL1        0.0623
     33 C         141.4476  142.4715  169.7453 C.ar    1  UNL1        0.0254
     34 C         141.8212  141.9489  168.3899 C.ar    1  UNL1        0.0972
     35 N         142.9929  142.2523  167.4924 N.ar    1  UNL1       -0.2400
     36 C         143.2363  141.6422  166.1439 C.ar    1  UNL1        0.1282
     37 C         142.2681  140.6402  165.5883 C.ar    1  UNL1        0.1588
     38 F         142.5115  140.0300  164.2398 F       1  UNL1       -0.2027
     39 C         141.0566  140.2483  166.3813 C.ar    1  UNL1        0.0500
     40 C         140.9461  140.9392  167.7081 C.ar    1  UNL1        0.0806
     41 H         138.1516  138.2792  166.5054 H       1  UNL1        0.2108
@<TRIPOS>BOND
     1    12    13    2
     2    13    14    1
     3    14    15    1
     4    15    16    1
     5    16    17   ar
     6    17    18   ar
     7    18    19    1
     8    18    20   ar
     9    20    11    1
    10    11     9    1
    11     9     1    1
    12     1     2    1
    13     2     3    1
    14     3     4    1
    15     4    25    1
    16    25    26    1
    17    26    27    1
    18    26    28    1
    19    28    29    1
    20    29    30   ar
    21    30    31    2
    22    30    32   ar
    23    32    33   ar
    24    33    34   ar
    25    34    35   ar
    26    35    36   ar
    27    36    37   ar
    28    37    38    1
    29    37    39   ar
    30    39    40   ar
    31     4     5    1
    32     5     6    1
    33     4     7    1
    34     7     8    1
    35    20    21   ar
    36    21    22   ar
    37    22    23    1
    38    23    13   am
    39    22    16   ar
    40     6     1    1
    41     8     1    1
    42    39    26    1
    43    40    29   ar
    44    40    34   ar
    45     9    10    1
    46    27    41    1
    47    23    24    1
@<TRIPOS>MOLECULE
*****
 41 47 0 0 0
SMALL
GASTEIGER

@<TRIPOS>ATOM
      1 C         138.6352  141.2966  163.9837 C.3     1  UNL1        0.0700
      2 C         139.2167  142.5042  164.6572 C.3     1  UNL1        0.0193
      3 C         140.1324  143.4182  163.8982 C.3     1  UNL1        0.0287
      4 C         140.4666  143.1246  162.4656 C.3     1  UNL1        0.0955
      5 C         139.8851  141.9171  161.7921 C.3     1  UNL1        0.0287
      6 C         138.9694  141.0031  162.5512 C.3     1  UNL1        0.0193
      7 O         139.9601  142.5947  162.8406 O.3     1  UNL1       -0.3571
      8 C         139.1322  141.7683  163.5269 C.3     1  UNL1        0.1562
      9 N         137.7195  140.3826  164.7427 N.3     1  UNL1       -0.2925
     10 H         137.1810  140.9686  165.3806 H       1  UNL1        0.1236
     11 C         138.2883  139.2613  165.5607 C.3     1  UNL1        0.1161
     12 O         141.5633  142.0725  172.0509 O.2     1  UNL1       -0.2707
     13 C         141.6886  141.3665  170.7333 C.2     1  UNL1        0.2718
     14 C         143.0310  140.8917  170.2617 C.3     1  UNL1        0.2898
     15 O         143.1565  140.1857  168.9441 O.3     1  UNL1       -0.4627
     16 C         141.9394  139.9546  168.0983 C.ar    1  UNL1        0.1716
     17 C         142.0648  139.2486  166.7807 C.ar    1  UNL1        0.0524
     18 C         140.8477  139.0176  165.9349 C.ar    1  UNL1        0.0757
     19 CL        140.9732  138.3116  164.6173 Cl      1  UNL1       -0.0809
     20 C         139.5053  139.4924  166.4066 C.ar    1  UNL1        0.0870
     21 N         139.3800  140.1984  167.7241 N.ar    1  UNL1       -0.2296
     22 C         140.5970  140.4295  168.5700 C.ar    1  UNL1        0.1683
     23 N         140.4716  141.1354  169.8874 N.am    1  UNL1       -0.2639
     24 H         139.5905  141.4471  170.1970 H       1  UNL1        0.1565
     25 C         141.3823  144.0387  161.7066 C.3     1  UNL1        0.0604
     26 C         140.8676  144.8016  160.5222 C.3     1  UNL1        0.1335
     27 O         139.9055  145.3846  161.5143 O.3     1  UNL1       -0.3806
     28 C         140.1517  145.6864  159.5451 C.3     1  UNL1        0.1402
     29 N         140.7790  145.4908  158.1967 N.ar    1  UNL1       -0.2915
     30 C         140.4879  146.0985  156.8566 C.ar    1  UNL1        0.2611
     31 O         139.3844  147.1043  156.7129 O.2     1  UNL1       -0.2670
     32 C         141.3003  145.7005  155.6601 C.ar    1  UNL1        0.0623
     33 C         142.4039  144.6947  155.8038 C.ar    1  UNL1        0.0254
     34 C         142.6950  144.0870  157.1439 C.ar    1  UNL1        0.0972
     35 N         143.7216  143.0726  157.5769 N.ar    1  UNL1       -0.2400
     36 C         143.8955  142.5530  158.9732 C.ar    1  UNL1        0.1282
     37 C         143.0033  143.0462  160.0735 C.ar    1  UNL1        0.1588
     38 F         143.1772  142.5265  161.4698 F       1  UNL1       -0.2027
     39 C         141.9373  144.0591  159.7776 C.ar    1  UNL1        0.0500
     40 C         141.8825  144.4850  158.3403 C.ar    1  UNL1        0.0806
     41 H         139.3209  146.0154  161.0656 H       1  UNL1        0.2108
@<TRIPOS>BOND
     1    12    13    2
     2    13    14    1
     3    14    15    1
     4    15    16    1
     5    16    17   ar
     6    17    18   ar
     7    18    19    1
     8    18    20   ar
     9    20    11    1
    10    11     9    1
    11     9     1    1
    12     1     2    1
    13     2     3    1
    14     3     4    1
    15     4    25    1
    16    25    26    1
    17    26    27    1
    18    26    28    1
    19    28    29    1
    20    29    30   ar
    21    30    31    2
    22    30    32   ar
    23    32    33   ar
    24    33    34   ar
    25    34    35   ar
    26    35    36   ar
    27    36    37   ar
    28    37    38    1
    29    37    39   ar
    30    39    40   ar
    31     4     5    1
    32     5     6    1
    33     4     7    1
    34     7     8    1
    35    20    21   ar
    36    21    22   ar
    37    22    23    1
    38    23    13   am
    39    22    16   ar
    40     6     1    1
    41     8     1    1
    42    39    26    1
    43    40    29   ar
    44    40    34   ar
    45     9    10    1
    46    27    41    1
    47    23    24    1
@<TRIPOS>MOLECULE
*****
 41 47 0 0 0
SMALL
GASTEIGER

@<TRIPOS>ATOM
      1 C         142.4051  138.6101  159.8138 C.3     1  UNL1        0.0700
      2 C         142.4235  137.8542  161.1093 C.3     1  UNL1        0.0193
      3 C         141.7096  138.4039  162.3086 C.3     1  UNL1        0.0287
      4 C         140.9774  139.7096  162.2124 C.3     1  UNL1        0.0955
      5 C         140.9591  140.4655  160.9169 C.3     1  UNL1        0.0287
      6 C         141.6729  139.9157  159.7177 C.3     1  UNL1        0.0193
      7 O         141.3539  139.4484  161.5283 O.3     1  UNL1       -0.3571
      8 C         141.9994  138.9514  160.4439 C.3     1  UNL1        0.1562
      9 N         143.1189  138.0604  158.6145 N.3     1  UNL1       -0.2925
     10 H         143.6822  138.8205  158.2332 H       1  UNL1        0.1236
     11 C         142.3340  137.4877  157.4719 C.3     1  UNL1        0.1161
     12 O         145.0421  130.2308  158.3400 O.2     1  UNL1       -0.2707
     13 C         144.5348  131.3309  157.4554 C.2     1  UNL1        0.2718
     14 C         144.4229  131.1121  155.9758 C.3     1  UNL1        0.2898
     15 O         143.9155  132.2122  155.0911 O.3     1  UNL1       -0.4627
     16 C         143.5201  133.5311  155.6863 C.ar    1  UNL1        0.1716
     17 C         143.0128  134.6311  154.8018 C.ar    1  UNL1        0.0524
     18 C         142.6174  135.9500  155.3970 C.ar    1  UNL1        0.0757
     19 CL        142.1101  137.0501  154.5124 Cl      1  UNL1       -0.0809
     20 C         142.7294  136.1688  156.8767 C.ar    1  UNL1        0.0870
     21 N         143.2367  135.0687  157.7612 N.ar    1  UNL1       -0.2296
     22 C         143.6321  133.7498  157.1660 C.ar    1  UNL1        0.1683
     23 N         144.1394  132.6498  158.0506 N.am    1  UNL1       -0.2639
     24 H         144.2129  132.7934  159.0218 H       1  UNL1        0.1565
     25 C         140.2636  140.2593  163.4117 C.3     1  UNL1        0.0604
     26 C         141.0483  140.8381  164.5515 C.3     1  UNL1        0.1335
     27 O         141.9164  141.3973  163.4635 O.3     1  UNL1       -0.3806
     28 C         142.0144  141.5339  165.4639 C.3     1  UNL1        0.1402
     29 N         141.5794  141.2838  166.8774 N.ar    1  UNL1       -0.2915
     30 C         142.1483  141.7204  168.1949 C.ar    1  UNL1        0.2611
     31 O         143.3833  142.5708  168.2336 O.2     1  UNL1       -0.2670
     32 C         141.4821  141.3067  169.4735 C.ar    1  UNL1        0.0623
     33 C         140.2471  140.4564  169.4348 C.ar    1  UNL1        0.0254
     34 C         139.6782  140.0197  168.1174 C.ar    1  UNL1        0.0972
     35 N         138.4733  139.1798  167.7809 N.ar    1  UNL1       -0.2400
     36 C         138.0223  138.8217  166.3958 C.ar    1  UNL1        0.1282
     37 C         138.7937  139.3109  165.2060 C.ar    1  UNL1        0.1588
     38 F         138.3426  138.9529  163.8209 F       1  UNL1       -0.2027
     39 C         140.0161  140.1580  165.4012 C.ar    1  UNL1        0.0500
     40 C         140.3443  140.4334  166.8387 C.ar    1  UNL1        0.0806
     41 H         142.6402  141.9085  163.8581 H       1  UNL1        0.2108
@<TRIPOS>BOND
     1    12    13    2
     2    13    14    1
     3    14    15    1
     4    15    16    1
     5    16    17   ar
     6    17    18   ar
     7    18    19    1
     8    18    20   ar
     9    20    11    1
    10    11     9    1
    11     9     1    1
    12     1     2    1
    13     2     3    1
    14     3     4    1
    15     4    25    1
    16    25    26    1
    17    26    27    1
    18    26    28    1
    19    28    29    1
    20    29    30   ar
    21    30    31    2
    22    30    32   ar
    23    32    33   ar
    24    33    34   ar
    25    34    35   ar
    26    35    36   ar
    27    36    37   ar
    28    37    38    1
    29    37    39   ar
    30    39    40   ar
    31     4     5    1
    32     5     6    1
    33     4     7    1
    34     7     8    1
    35    20    21   ar
    36    21    22   ar
    37    22    23    1
    38    23    13   am
    39    22    16   ar
    40     6     1    1
    41     8     1    1
    42    39    26    1
    43    40    29   ar
    44    40    34   ar
    45     9    10    1
    46    27    41    1
    47    23    24    1
@<TRIPOS>MOLECULE
*****
 41 47 0 0 0
SMALL
GASTEIGER

@<TRIPOS>ATOM
      1 C         143.1892  144.2727  163.4338 C.3     1  UNL1        0.0700
      2 C         141.9680  145.1304  163.5852 C.3     1  UNL1        0.0193
      3 C         141.0615  145.3584  162.4120 C.3     1  UNL1        0.0287
      4 C         141.3762  144.7286  161.0874 C.3     1  UNL1        0.0955
      5 C         142.5975  143.8709  160.9361 C.3     1  UNL1        0.0287
      6 C         143.5039  143.6430  162.1093 C.3     1  UNL1        0.0193
      7 O         141.9027  144.5748  161.7016 O.3     1  UNL1       -0.3571
      8 C         142.7224  144.3687  162.7623 C.3     1  UNL1        0.1562
      9 N         144.0957  144.0448  164.6070 N.3     1  UNL1       -0.2925
     10 H         145.0377  144.2916  164.3036 H       1  UNL1        0.1236
     11 C         144.1848  142.6844  165.2327 C.3     1  UNL1        0.1161
     12 O         140.4737  142.2076  172.0702 O.2     1  UNL1       -0.2707
     13 C         140.5730  141.8454  170.6179 C.2     1  UNL1        0.2718
     14 C         139.5345  140.9620  169.9927 C.3     1  UNL1        0.2898
     15 O         139.6336  140.5997  168.5404 O.3     1  UNL1       -0.4627
     16 C         140.7714  141.1209  167.7135 C.ar    1  UNL1        0.1716
     17 C         140.8707  140.7586  166.2613 C.ar    1  UNL1        0.0524
     18 C         142.0085  141.2798  165.4344 C.ar    1  UNL1        0.0757
     19 CL        142.1077  140.9175  163.9821 Cl      1  UNL1       -0.0809
     20 C         143.0470  142.1633  166.0597 C.ar    1  UNL1        0.0870
     21 N         142.9478  142.5255  167.5119 N.ar    1  UNL1       -0.2296
     22 C         141.8100  142.0043  168.3388 C.ar    1  UNL1        0.1683
     23 N         141.7108  142.3666  169.7910 N.am    1  UNL1       -0.2639
     24 H         142.3924  142.9464  170.2013 H       1  UNL1        0.1565
     25 C         140.4697  144.9565  159.9143 C.3     1  UNL1        0.0604
     26 C         139.6101  143.8390  159.4024 C.3     1  UNL1        0.1335
     27 O         139.2076  143.7003  160.8407 O.3     1  UNL1       -0.3806
     28 C         138.6663  142.6924  159.1912 C.3     1  UNL1        0.1402
     29 N         138.6652  142.3561  157.7294 N.ar    1  UNL1       -0.2915
     30 C         137.9272  141.3164  156.9393 C.ar    1  UNL1        0.2611
     31 O         136.9841  140.3777  157.6315 O.2     1  UNL1       -0.2670
     32 C         138.1324  141.2154  155.4568 C.ar    1  UNL1        0.0623
     33 C         139.0756  142.1541  154.7646 C.ar    1  UNL1        0.0254
     34 C         139.8135  143.1939  155.5547 C.ar    1  UNL1        0.0972
     35 N         140.8034  144.2492  155.1343 N.ar    1  UNL1       -0.2400
     36 C         141.4680  145.2327  156.0514 C.ar    1  UNL1        0.1282
     37 C         141.1624  145.2137  157.5198 C.ar    1  UNL1        0.1588
     38 F         141.8270  146.1972  158.4369 F       1  UNL1       -0.2027
     39 C         140.1923  144.2113  158.0711 C.ar    1  UNL1        0.0500
     40 C         139.6083  143.2948  157.0371 C.ar    1  UNL1        0.0806
     41 H         138.5680  142.9764  160.9291 H       1  UNL1        0.2108
@<TRIPOS>BOND
     1    12    13    2
     2    13    14    1
     3    14    15    1
     4    15    16    1
     5    16    17   ar
     6    17    18   ar
     7    18    19    1
     8    18    20   ar
     9    20    11    1
    10    11     9    1
    11     9     1    1
    12     1     2    1
    13     2     3    1
    14     3     4    1
    15     4    25    1
    16    25    26    1
    17    26    27    1
    18    26    28    1
    19    28    29    1
    20    29    30   ar
    21    30    31    2
    22    30    32   ar
    23    32    33   ar
    24    33    34   ar
    25    34    35   ar
    26    35    36   ar
    27    36    37   ar
    28    37    38    1
    29    37    39   ar
    30    39    40   ar
    31     4     5    1
    32     5     6    1
    33     4     7    1
    34     7     8    1
    35    20    21   ar
    36    21    22   ar
    37    22    23    1
    38    23    13   am
    39    22    16   ar
    40     6     1    1
    41     8     1    1
    42    39    26    1
    43    40    29   ar
    44    40    34   ar
    45     9    10    1
    46    27    41    1
    47    23    24    1
@<TRIPOS>MOLECULE
*****
 41 47 0 0 0
SMALL
GASTEIGER

@<TRIPOS>ATOM
      1 C         141.6379  144.4911  161.7169 C.3     1  UNL1        0.0700
      2 C         140.5088  144.2363  162.6709 C.3     1  UNL1        0.0193
      3 C         140.6512  143.1941  163.7403 C.3     1  UNL1        0.0287
      4 C         141.9227  142.4066  163.8557 C.3     1  UNL1        0.0955
      5 C         143.0518  142.6614  162.9017 C.3     1  UNL1        0.0287
      6 C         142.9094  143.7037  161.8323 C.3     1  UNL1        0.0193
      7 O         141.8913  142.9673  163.2535 O.3     1  UNL1       -0.3571
      8 C         141.7626  143.9096  162.2866 C.3     1  UNL1        0.1562
      9 N         141.4956  145.5332  160.6475 N.3     1  UNL1       -0.2925
     10 H         140.8192  146.2158  160.9897 H       1  UNL1        0.1236
     11 C         141.0532  145.1384  159.2697 C.3     1  UNL1        0.1161
     12 O         147.3093  141.7557  156.0806 O.2     1  UNL1       -0.2707
     13 C         145.8587  141.7088  156.4599 C.2     1  UNL1        0.2718
     14 C         145.0431  140.4874  156.1554 C.3     1  UNL1        0.2898
     15 O         143.5925  140.4404  156.5346 O.3     1  UNL1       -0.4627
     16 C         142.9577  141.6149  157.2184 C.ar    1  UNL1        0.1716
     17 C         141.5072  141.5679  157.5976 C.ar    1  UNL1        0.0524
     18 C         140.8724  142.7425  158.2814 C.ar    1  UNL1        0.0757
     19 CL        139.4219  142.6954  158.6607 Cl      1  UNL1       -0.0809
     20 C         141.6881  143.9639  158.5859 C.ar    1  UNL1        0.0870
     21 N         143.1386  144.0108  158.2067 N.ar    1  UNL1       -0.2296
     22 C         143.7734  142.8363  157.5229 C.ar    1  UNL1        0.1683
     23 N         145.2239  142.8833  157.1437 N.am    1  UNL1       -0.2639
     24 H         145.7592  143.6850  157.3435 H       1  UNL1        0.1565
     25 C         142.0651  141.3645  164.9251 C.3     1  UNL1        0.0604
     26 C         142.2371  141.7776  166.3568 C.3     1  UNL1        0.1335
     27 O         143.3877  142.5783  165.8232 O.3     1  UNL1       -0.3806
     28 C         142.6496  142.3580  167.6770 C.3     1  UNL1        0.1402
     29 N         141.7179  141.8297  168.7271 N.ar    1  UNL1       -0.2915
     30 C         141.6419  142.0573  170.2078 C.ar    1  UNL1        0.2611
     31 O         142.6302  142.9643  170.8789 O.2     1  UNL1       -0.2670
     32 C         140.5774  141.3779  171.0173 C.ar    1  UNL1        0.0623
     33 C         139.5891  140.4708  170.3461 C.ar    1  UNL1        0.0254
     34 C         139.6651  140.2432  168.8655 C.ar    1  UNL1        0.0972
     35 N         138.8231  139.4021  167.9415 N.ar    1  UNL1       -0.2400
     36 C         139.0226  139.2714  166.4606 C.ar    1  UNL1        0.1282
     37 C         140.1363  140.0156  165.7854 C.ar    1  UNL1        0.1588
     38 F         140.3359  139.8850  164.3045 F       1  UNL1       -0.2027
     39 C         141.0504  140.8904  166.5911 C.ar    1  UNL1        0.0500
     40 C         140.7296  140.9226  168.0560 C.ar    1  UNL1        0.0806
     41 H         143.8149  143.0555  166.5517 H       1  UNL1        0.2108
@<TRIPOS>BOND
     1    12    13    2
     2    13    14    1
     3    14    15    1
     4    15    16    1
     5    16    17   ar
     6    17    18   ar
     7    18    19    1
     8    18    20   ar
     9    20    11    1
    10    11     9    1
    11     9     1    1
    12     1     2    1
    13     2     3    1
    14     3     4    1
    15     4    25    1
    16    25    26    1
    17    26    27    1
    18    26    28    1
    19    28    29    1
    20    29    30   ar
    21    30    31    2
    22    30    32   ar
    23    32    33   ar
    24    33    34   ar
    25    34    35   ar
    26    35    36   ar
    27    36    37   ar
    28    37    38    1
    29    37    39   ar
    30    39    40   ar
    31     4     5    1
    32     5     6    1
    33     4     7    1
    34     7     8    1
    35    20    21   ar
    36    21    22   ar
    37    22    23    1
    38    23    13   am
    39    22    16   ar
    40     6     1    1
    41     8     1    1
    42    39    26    1
    43    40    29   ar
    44    40    34   ar
    45     9    10    1
    46    27    41    1
    47    23    24    1
@<TRIPOS>MOLECULE
*****
 41 47 0 0 0
SMALL
GASTEIGER

@<TRIPOS>ATOM
      1 C         141.6228  139.1774  157.9695 C.3     1  UNL1        0.0700
      2 C         142.4247  139.6424  159.1488 C.3     1  UNL1        0.0193
      3 C         141.9250  139.3928  160.5409 C.3     1  UNL1        0.0287
      4 C         140.6235  138.6780  160.7537 C.3     1  UNL1        0.0955
      5 C         139.8216  138.2130  159.5744 C.3     1  UNL1        0.0287
      6 C         140.3214  138.4627  158.1823 C.3     1  UNL1        0.0193
      7 O         140.8564  138.7919  159.9722 O.3     1  UNL1       -0.3571
      8 C         141.3082  139.0176  158.7135 C.3     1  UNL1        0.1562
      9 N         142.1225  139.4270  156.5773 N.3     1  UNL1       -0.2925
     10 H         141.3021  139.4648  155.9724 H       1  UNL1        0.1236
     11 C         143.0848  138.4673  155.9426 C.3     1  UNL1        0.1161
     12 O         145.1520  131.2676  158.0969 O.2     1  UNL1       -0.2707
     13 C         144.1873  132.1936  157.4172 C.2     1  UNL1        0.2718
     14 C         142.9470  131.6455  156.7759 C.3     1  UNL1        0.2898
     15 O         141.9822  132.5714  156.0962 O.3     1  UNL1       -0.4627
     16 C         142.2579  134.0454  156.0578 C.ar    1  UNL1        0.1716
     17 C         141.2932  134.9713  155.3782 C.ar    1  UNL1        0.0524
     18 C         141.5689  136.4453  155.3398 C.ar    1  UNL1        0.0757
     19 CL        140.6041  137.3712  154.6600 Cl      1  UNL1       -0.0809
     20 C         142.8092  136.9933  155.9810 C.ar    1  UNL1        0.0870
     21 N         143.7739  136.0674  156.6607 N.ar    1  UNL1       -0.2296
     22 C         143.4982  134.5934  156.6991 C.ar    1  UNL1        0.1683
     23 N         144.4629  133.6675  157.3788 N.am    1  UNL1       -0.2639
     24 H         145.2770  134.0272  157.7997 H       1  UNL1        0.1565
     25 C         140.1238  138.4284  162.1459 C.3     1  UNL1        0.0604
     26 C         141.0988  138.2417  163.2704 C.3     1  UNL1        0.1335
     27 O         141.6139  137.1131  162.4273 O.3     1  UNL1       -0.3806
     28 C         142.1814  137.8190  164.2187 C.3     1  UNL1        0.1402
     29 N         142.1315  138.7254  165.4129 N.ar    1  UNL1       -0.2915
     30 C         142.9561  138.7828  166.6645 C.ar    1  UNL1        0.2611
     31 O         144.0696  137.7999  166.8748 O.2     1  UNL1       -0.2670
     32 C         142.6673  139.8230  167.7059 C.ar    1  UNL1        0.0623
     33 C         141.5538  140.8058  167.4956 C.ar    1  UNL1        0.0254
     34 C         140.7292  140.7484  166.2440 C.ar    1  UNL1        0.0972
     35 N         139.5713  141.5900  165.7734 N.ar    1  UNL1       -0.2400
     36 C         138.8358  141.4108  164.4784 C.ar    1  UNL1        0.1282
     37 C         139.2401  140.3205  163.5310 C.ar    1  UNL1        0.1588
     38 F         138.5046  140.1413  162.2360 F       1  UNL1       -0.2027
     39 C         140.3798  139.4093  163.8785 C.ar    1  UNL1        0.0500
     40 C         141.0180  139.7082  165.2026 C.ar    1  UNL1        0.0806
     41 H         142.3557  136.6830  162.8809 H       1  UNL1        0.2108
@<TRIPOS>BOND
     1    12    13    2
     2    13    14    1
     3    14    15    1
     4    15    16    1
     5    16    17   ar
     6    17    18   ar
     7    18    19    1
     8    18    20   ar
     9    20    11    1
    10    11     9    1
    11     9     1    1
    12     1     2    1
    13     2     3    1
    14     3     4    1
    15     4    25    1
    16    25    26    1
    17    26    27    1
    18    26    28    1
    19    28    29    1
    20    29    30   ar
    21    30    31    2
    22    30    32   ar
    23    32    33   ar
    24    33    34   ar
    25    34    35   ar
    26    35    36   ar
    27    36    37   ar
    28    37    38    1
    29    37    39   ar
    30    39    40   ar
    31     4     5    1
    32     5     6    1
    33     4     7    1
    34     7     8    1
    35    20    21   ar
    36    21    22   ar
    37    22    23    1
    38    23    13   am
    39    22    16   ar
    40     6     1    1
    41     8     1    1
    42    39    26    1
    43    40    29   ar
    44    40    34   ar
    45     9    10    1
    46    27    41    1
    47    23    24    1
@<TRIPOS>MOLECULE
*****
 41 47 0 0 0
SMALL
GASTEIGER

@<TRIPOS>ATOM
      1 C         143.3830  144.2112  163.3651 C.3     1  UNL1        0.0700
      2 C         143.5721  143.5425  162.0358 C.3     1  UNL1        0.0193
      3 C         142.5797  143.7695  160.9341 C.3     1  UNL1        0.0287
      4 C         141.3982  144.6653  161.1618 C.3     1  UNL1        0.0955
      5 C         141.2092  145.3341  162.4911 C.3     1  UNL1        0.0287
      6 C         142.2016  145.1070  163.5927 C.3     1  UNL1        0.0193
      7 O         141.9154  144.5713  161.7956 O.3     1  UNL1       -0.3571
      8 C         142.8126  144.3660  162.7917 C.3     1  UNL1        0.1562
      9 N         144.3754  143.9842  164.4668 N.3     1  UNL1       -0.2925
     10 H         145.2211  143.6172  164.0303 H       1  UNL1        0.1236
     11 C         144.0386  143.0626  165.6013 C.3     1  UNL1        0.1161
     12 O         137.5596  138.7912  166.3282 O.2     1  UNL1       -0.2707
     13 C         138.9633  138.9465  165.8225 C.2     1  UNL1        0.2718
     14 C         139.6109  137.8333  165.0537 C.3     1  UNL1        0.2898
     15 O         141.0146  137.9885  164.5480 O.3     1  UNL1       -0.4627
     16 C         141.7706  139.2570  164.8113 C.ar    1  UNL1        0.1716
     17 C         143.1742  139.4124  164.3057 C.ar    1  UNL1        0.0524
     18 C         143.9302  140.6809  164.5691 C.ar    1  UNL1        0.0757
     19 CL        145.3339  140.8361  164.0634 Cl      1  UNL1       -0.0809
     20 C         143.2826  141.7941  165.3380 C.ar    1  UNL1        0.0870
     21 N         141.8789  141.6388  165.8436 N.ar    1  UNL1       -0.2296
     22 C         141.1229  140.3703  165.5803 C.ar    1  UNL1        0.1683
     23 N         139.7193  140.2151  166.0859 N.am    1  UNL1       -0.2639
     24 H         139.2942  140.9457  166.5906 H       1  UNL1        0.1565
     25 C         140.4059  144.8923  160.0601 C.3     1  UNL1        0.0604
     26 C         139.5533  143.7583  159.5732 C.3     1  UNL1        0.1335
     27 O         139.1398  143.6590  161.0117 O.3     1  UNL1       -0.3806
     28 C         138.6143  142.6035  159.3870 C.3     1  UNL1        0.1402
     29 N         138.6256  142.2262  157.9353 N.ar    1  UNL1       -0.2915
     30 C         137.8967  141.1625  157.1690 C.ar    1  UNL1        0.2611
     31 O         136.9507  140.2409  157.8801 O.2     1  UNL1       -0.2670
     32 C         138.1139  141.0205  155.6917 C.ar    1  UNL1        0.0623
     33 C         139.0599  141.9421  154.9806 C.ar    1  UNL1        0.0254
     34 C         139.7888  143.0058  155.7469 C.ar    1  UNL1        0.0972
     35 N         140.7791  144.0518  155.3047 N.ar    1  UNL1       -0.2400
     36 C         141.4338  145.0626  156.1988 C.ar    1  UNL1        0.1282
     37 C         141.1167  145.0841  157.6648 C.ar    1  UNL1        0.1588
     38 F         141.7714  146.0949  158.5590 F       1  UNL1       -0.2027
     39 C         140.1450  144.0947  158.2365 C.ar    1  UNL1        0.0500
     40 C         139.5716  143.1478  157.2242 C.ar    1  UNL1        0.0806
     41 H         138.5015  142.9360  161.1154 H       1  UNL1        0.2108
@<TRIPOS>BOND
     1    12    13    2
     2    13    14    1
     3    14    15    1
     4    15    16    1
     5    16    17   ar
     6    17    18   ar
     7    18    19    1
     8    18    20   ar
     9    20    11    1
    10    11     9    1
    11     9     1    1
    12     1     2    1
    13     2     3    1
    14     3     4    1
    15     4    25    1
    16    25    26    1
    17    26    27    1
    18    26    28    1
    19    28    29    1
    20    29    30   ar
    21    30    31    2
    22    30    32   ar
    23    32    33   ar
    24    33    34   ar
    25    34    35   ar
    26    35    36   ar
    27    36    37   ar
    28    37    38    1
    29    37    39   ar
    30    39    40   ar
    31     4     5    1
    32     5     6    1
    33     4     7    1
    34     7     8    1
    35    20    21   ar
    36    21    22   ar
    37    22    23    1
    38    23    13   am
    39    22    16   ar
    40     6     1    1
    41     8     1    1
    42    39    26    1
    43    40    29   ar
    44    40    34   ar
    45     9    10    1
    46    27    41    1
    47    23    24    1
