@<TRIPOS>MOLECULE
*****
 41 45 0 0 0
SMALL
GASTEIGER

@<TRIPOS>ATOM
      1 C         140.6459  139.0109  160.8226 C.3     1  UNL1        0.0747
      2 C         142.0924  138.9489  160.4306 C.3     1  UNL1        0.0369
      3 C         142.4753  138.5472  159.0371 C.3     1  UNL1        0.0741
      4 N         141.4116  138.2075  158.0354 N.3     1  UNL1       -0.2689
      5 C         139.9651  138.2696  158.4274 C.3     1  UNL1        0.0741
      6 C         139.5822  138.6713  159.8210 C.3     1  UNL1        0.0369
      7 O         140.7755  137.0061  163.0506 O.2     1  UNL1       -0.2668
      8 C         140.3278  138.4102  163.3302 C.2     1  UNL1        0.2806
      9 N         140.2630  139.4126  162.2161 N.am    1  UNL1       -0.2999
     10 H         139.9691  140.3341  162.3996 H       1  UNL1        0.1498
     11 C         139.9449  138.8119  164.7238 C.ar    1  UNL1        0.2014
     12 C         138.7276  138.2176  165.3679 C.ar    1  UNL1        0.0843
     13 C         138.3446  138.6193  166.7614 C.ar    1  UNL1        0.2018
     14 O         137.1273  138.0249  167.4055 O.2     1  UNL1       -0.2864
     15 C         139.1790  139.6153  167.5109 C.ar    1  UNL1        0.0737
     16 C         138.7961  140.0170  168.9044 C.ar    1  UNL1        0.0085
     17 C         139.6305  141.0130  169.6539 C.ar    1  UNL1        0.0299
     18 C         140.8479  141.6073  169.0098 C.ar    1  UNL1        0.1432
     19 F         141.6823  142.6034  169.7593 F       1  UNL1       -0.2041
     20 C         141.2308  141.2057  167.6162 C.ar    1  UNL1        0.0672
     21 C         140.3964  140.2097  166.8668 C.ar    1  UNL1        0.1508
     22 O         140.7793  139.8079  165.4732 O.2     1  UNL1       -0.4486
     23 C         141.7945  137.8059  156.6419 C.3     1  UNL1        0.0992
     24 C         142.0477  136.3628  156.3201 C.ar    1  UNL1       -0.0039
     25 C         141.1787  135.6526  155.3250 C.ar    1  UNL1       -0.0026
     26 C         141.4319  134.2096  155.0032 C.ar    1  UNL1        0.0065
     27 C         142.5542  133.4768  155.6765 C.ar    1  UNL1        0.0807
     28 C         143.4233  134.1870  156.6716 C.ar    1  UNL1        0.1442
     29 F         144.5457  133.4542  157.3449 F       1  UNL1       -0.2040
     30 C         143.1701  135.6301  156.9934 C.ar    1  UNL1        0.0269
     31 C         142.8075  132.0338  155.3547 C.2     1  UNL1        0.2481
     32 O         143.3499  131.6492  154.0102 O.2     1  UNL1       -0.2701
     33 N         142.5183  130.9753  156.3775 N.am    1  UNL1       -0.2994
     34 H         142.1623  131.2278  157.2600 H       1  UNL1        0.1498
     35 C         142.7716  129.5323  156.0557 C.3     1  UNL1        0.1070
     36 C         141.8696  128.8072  155.1013 C.3     1  UNL1        0.0936
     37 N         140.7644  127.9395  155.6264 N.3     1  UNL1       -0.2712
     38 C         140.8299  127.0710  156.8477 C.3     1  UNL1        0.0722
     39 C         139.5056  126.3826  156.9984 C.3     1  UNL1        0.0188
     40 C         138.6218  126.8256  155.8703 C.3     1  UNL1        0.0188
     41 C         139.3998  127.7878  155.0223 C.3     1  UNL1        0.0722
@<TRIPOS>BOND
     1     7     8    2
     2     8     9   am
     3     9     1    1
     4     1     2    1
     5     2     3    1
     6     3     4    1
     7     4    23    1
     8    23    24    1
     9    24    25   ar
    10    25    26   ar
    11    26    27   ar
    12    27    31    1
    13    31    32    2
    14    31    33   am
    15    33    35    1
    16    35    36    1
    17    36    37    1
    18    37    38    1
    19    38    39    1
    20    39    40    1
    21    40    41    1
    22    27    28   ar
    23    28    29    1
    24    28    30   ar
    25     4     5    1
    26     5     6    1
    27     8    11    1
    28    11    12   ar
    29    12    13   ar
    30    13    14    2
    31    13    15   ar
    32    15    16   ar
    33    16    17   ar
    34    17    18   ar
    35    18    19    1
    36    18    20   ar
    37    20    21   ar
    38    21    22   ar
    39     6     1    1
    40    22    11   ar
    41    30    24   ar
    42    21    15   ar
    43    41    37    1
    44     9    10    1
    45    33    34    1
@<TRIPOS>MOLECULE
*****
 41 45 0 0 0
SMALL
GASTEIGER

@<TRIPOS>ATOM
      1 C         139.5008  141.9688  157.4987 C.3     1  UNL1        0.0747
      2 C         140.7353  141.3910  158.1250 C.3     1  UNL1        0.0369
      3 C         140.6275  140.2118  159.0458 C.3     1  UNL1        0.0741
      4 N         139.2852  139.6103  159.3402 N.3     1  UNL1       -0.2689
      5 C         138.0508  140.1881  158.7138 C.3     1  UNL1        0.0741
      6 C         138.1586  141.3674  157.7930 C.3     1  UNL1        0.0369
      7 O         139.7166  144.7395  158.6287 O.2     1  UNL1       -0.2668
      8 C         139.7165  144.5333  157.1429 C.2     1  UNL1        0.2806
      9 N         139.6086  143.1480  156.5779 N.am    1  UNL1       -0.2999
     10 H         139.6086  143.0127  155.6028 H       1  UNL1        0.1498
     11 C         139.8243  145.7126  156.2221 C.ar    1  UNL1        0.2014
     12 C         140.6022  145.5980  154.9447 C.ar    1  UNL1        0.0843
     13 C         140.7100  146.7772  154.0239 C.ar    1  UNL1        0.2018
     14 O         141.4880  146.6626  152.7465 O.2     1  UNL1       -0.2864
     15 C         140.0399  148.0710  154.3805 C.ar    1  UNL1        0.0737
     16 C         140.1477  149.2501  153.4596 C.ar    1  UNL1        0.0085
     17 C         139.4776  150.5438  153.8162 C.ar    1  UNL1        0.0299
     18 C         138.6996  150.6584  155.0936 C.ar    1  UNL1        0.1432
     19 F         138.0295  151.9522  155.4501 F       1  UNL1       -0.2041
     20 C         138.5918  149.4793  156.0144 C.ar    1  UNL1        0.0672
     21 C         139.2619  148.1855  155.6578 C.ar    1  UNL1        0.1508
     22 O         139.1542  147.0063  156.5787 O.2     1  UNL1       -0.4486
     23 C         139.1774  138.4311  160.2609 C.3     1  UNL1        0.0992
     24 C         139.0183  138.6443  161.7372 C.ar    1  UNL1       -0.0039
     25 C         139.5431  137.6239  162.7032 C.ar    1  UNL1       -0.0026
     26 C         139.3840  137.8370  164.1794 C.ar    1  UNL1        0.0065
     27 C         138.7000  139.0706  164.6896 C.ar    1  UNL1        0.0807
     28 C         138.1752  140.0911  163.7236 C.ar    1  UNL1        0.1442
     29 F         137.4912  141.3248  164.2338 F       1  UNL1       -0.2040
     30 C         138.3343  139.8779  162.2474 C.ar    1  UNL1        0.0269
     31 C         138.5409  139.2838  166.1658 C.2     1  UNL1        0.2481
     32 O         137.3045  138.8008  166.8644 O.2     1  UNL1       -0.2701
     33 N         139.6182  139.9800  166.9435 N.am    1  UNL1       -0.2994
     34 H         140.4297  140.2970  166.4850 H       1  UNL1        0.1498
     35 C         139.4590  140.1931  168.4197 C.3     1  UNL1        0.1070
     36 C         140.6211  139.9638  169.3402 C.3     1  UNL1        0.0936
     37 N         141.5857  141.0773  169.6221 N.3     1  UNL1       -0.2712
     38 C         143.0780  141.0066  169.4866 C.3     1  UNL1        0.0722
     39 C         143.6420  142.3427  169.8697 C.3     1  UNL1        0.0188
     40 C         142.4984  143.2392  170.2419 C.3     1  UNL1        0.0188
     41 C         141.2276  142.4571  170.0889 C.3     1  UNL1        0.0722
@<TRIPOS>BOND
     1     7     8    2
     2     8     9   am
     3     9     1    1
     4     1     2    1
     5     2     3    1
     6     3     4    1
     7     4    23    1
     8    23    24    1
     9    24    25   ar
    10    25    26   ar
    11    26    27   ar
    12    27    31    1
    13    31    32    2
    14    31    33   am
    15    33    35    1
    16    35    36    1
    17    36    37    1
    18    37    38    1
    19    38    39    1
    20    39    40    1
    21    40    41    1
    22    27    28   ar
    23    28    29    1
    24    28    30   ar
    25     4     5    1
    26     5     6    1
    27     8    11    1
    28    11    12   ar
    29    12    13   ar
    30    13    14    2
    31    13    15   ar
    32    15    16   ar
    33    16    17   ar
    34    17    18   ar
    35    18    19    1
    36    18    20   ar
    37    20    21   ar
    38    21    22   ar
    39     6     1    1
    40    22    11   ar
    41    30    24   ar
    42    21    15   ar
    43    41    37    1
    44     9    10    1
    45    33    34    1
@<TRIPOS>MOLECULE
*****
 41 45 0 0 0
SMALL
GASTEIGER

@<TRIPOS>ATOM
      1 C         140.6596  139.0171  160.6793 C.3     1  UNL1        0.0747
      2 C         142.0936  139.0546  160.2407 C.3     1  UNL1        0.0369
      3 C         142.4602  138.6605  158.8407 C.3     1  UNL1        0.0741
      4 N         141.3929  138.2290  157.8790 N.3     1  UNL1       -0.2689
      5 C         139.9589  138.1915  158.3176 C.3     1  UNL1        0.0741
      6 C         139.5923  138.5855  159.7177 C.3     1  UNL1        0.0369
      7 O         140.6921  136.9691  162.8712 O.2     1  UNL1       -0.2668
      8 C         140.3092  138.3871  163.1753 C.2     1  UNL1        0.2806
      9 N         140.2929  139.4111  162.0793 N.am    1  UNL1       -0.2999
     10 H         140.0416  140.3418  162.2789 H       1  UNL1        0.1498
     11 C         139.9425  138.7812  164.5754 C.ar    1  UNL1        0.2014
     12 C         138.6926  138.2399  165.2039 C.ar    1  UNL1        0.0843
     13 C         138.3259  138.6340  166.6040 C.ar    1  UNL1        0.2018
     14 O         137.0761  138.0927  167.2325 O.2     1  UNL1       -0.2864
     15 C         139.2090  139.5693  167.3756 C.ar    1  UNL1        0.0737
     16 C         138.8423  139.9633  168.7757 C.ar    1  UNL1        0.0085
     17 C         139.7254  140.8986  169.5472 C.ar    1  UNL1        0.0299
     18 C         140.9752  141.4399  168.9187 C.ar    1  UNL1        0.1432
     19 F         141.8583  142.3752  169.6904 F       1  UNL1       -0.2041
     20 C         141.3419  141.0458  167.5187 C.ar    1  UNL1        0.0672
     21 C         140.4588  140.1105  166.7471 C.ar    1  UNL1        0.1508
     22 O         140.8255  139.7164  165.3470 O.2     1  UNL1       -0.4486
     23 C         141.7596  137.8350  156.4790 C.3     1  UNL1        0.0992
     24 C         142.0592  136.4008  156.1575 C.ar    1  UNL1       -0.0039
     25 C         141.2704  135.6888  155.0989 C.ar    1  UNL1       -0.0026
     26 C         141.5701  134.2546  154.7775 C.ar    1  UNL1        0.0065
     27 C         142.6586  133.5324  155.5147 C.ar    1  UNL1        0.0807
     28 C         143.4475  134.2444  156.5733 C.ar    1  UNL1        0.1442
     29 F         144.5361  133.5223  157.3105 F       1  UNL1       -0.2040
     30 C         143.1478  135.6786  156.8947 C.ar    1  UNL1        0.0269
     31 C         142.9583  132.0982  155.1932 C.2     1  UNL1        0.2481
     32 O         143.3672  131.7108  153.8031 O.2     1  UNL1       -0.2701
     33 N         142.8490  131.0515  156.2620 N.am    1  UNL1       -0.2994
     34 H         142.5806  131.3057  157.1744 H       1  UNL1        0.1498
     35 C         143.1487  129.6173  155.9406 C.3     1  UNL1        0.1070
     36 C         142.4157  128.5199  156.6537 C.3     1  UNL1        0.0936
     37 N         142.7756  128.1734  158.0680 N.3     1  UNL1       -0.2712
     38 C         143.8607  128.8121  158.8835 C.3     1  UNL1        0.0722
     39 C         143.8693  128.1608  160.2347 C.3     1  UNL1        0.0188
     40 C         142.7897  127.1196  160.2544 C.3     1  UNL1        0.0188
     41 C         142.1138  127.1274  158.9153 C.3     1  UNL1        0.0722
@<TRIPOS>BOND
     1     7     8    2
     2     8     9   am
     3     9     1    1
     4     1     2    1
     5     2     3    1
     6     3     4    1
     7     4    23    1
     8    23    24    1
     9    24    25   ar
    10    25    26   ar
    11    26    27   ar
    12    27    31    1
    13    31    32    2
    14    31    33   am
    15    33    35    1
    16    35    36    1
    17    36    37    1
    18    37    38    1
    19    38    39    1
    20    39    40    1
    21    40    41    1
    22    27    28   ar
    23    28    29    1
    24    28    30   ar
    25     4     5    1
    26     5     6    1
    27     8    11    1
    28    11    12   ar
    29    12    13   ar
    30    13    14    2
    31    13    15   ar
    32    15    16   ar
    33    16    17   ar
    34    17    18   ar
    35    18    19    1
    36    18    20   ar
    37    20    21   ar
    38    21    22   ar
    39     6     1    1
    40    22    11   ar
    41    30    24   ar
    42    21    15   ar
    43    41    37    1
    44     9    10    1
    45    33    34    1
@<TRIPOS>MOLECULE
*****
 41 45 0 0 0
SMALL
GASTEIGER

@<TRIPOS>ATOM
      1 C         142.0958  138.8082  161.2581 C.3     1  UNL1        0.0747
      2 C         141.2125  139.9920  161.5196 C.3     1  UNL1        0.0369
      3 C         141.4443  140.8481  162.7292 C.3     1  UNL1        0.0741
      4 N         142.5596  140.5205  163.6774 N.3     1  UNL1       -0.2689
      5 C         143.4429  139.3367  163.4159 C.3     1  UNL1        0.0741
      6 C         143.2110  138.4806  162.2062 C.3     1  UNL1        0.0369
      7 O         143.7557  139.2143  158.7924 O.2     1  UNL1       -0.2668
      8 C         142.6939  138.1551  158.8156 C.2     1  UNL1        0.2806
      9 N         141.8639  137.9520  160.0485 N.am    1  UNL1       -0.2999
     10 H         141.1670  137.2568  160.0637 H       1  UNL1        0.1498
     11 C         142.4620  137.2988  157.6060 C.ar    1  UNL1        0.2014
     12 C         141.5777  137.7896  156.4981 C.ar    1  UNL1        0.0843
     13 C         141.3458  136.9334  155.2885 C.ar    1  UNL1        0.2018
     14 O         140.4615  137.4241  154.1807 O.2     1  UNL1       -0.2864
     15 C         141.9981  135.5865  155.1867 C.ar    1  UNL1        0.0737
     16 C         141.7662  134.7303  153.9771 C.ar    1  UNL1        0.0085
     17 C         142.4185  133.3835  153.8754 C.ar    1  UNL1        0.0299
     18 C         143.3028  132.8928  154.9832 C.ar    1  UNL1        0.1432
     19 F         143.9551  131.5458  154.8814 F       1  UNL1       -0.2041
     20 C         143.5347  133.7489  156.1928 C.ar    1  UNL1        0.0672
     21 C         142.8824  135.0958  156.2946 C.ar    1  UNL1        0.1508
     22 O         143.1143  135.9520  157.5042 O.2     1  UNL1       -0.4486
     23 C         142.7914  141.3767  164.8870 C.3     1  UNL1        0.0992
     24 C         141.9761  141.1594  166.1271 C.ar    1  UNL1       -0.0039
     25 C         141.6941  139.7657  166.6047 C.ar    1  UNL1       -0.0026
     26 C         140.8787  139.5485  167.8448 C.ar    1  UNL1        0.0065
     27 C         140.3453  140.7248  168.6074 C.ar    1  UNL1        0.0807
     28 C         140.6273  142.1185  168.1298 C.ar    1  UNL1        0.1442
     29 F         140.0939  143.2950  168.8924 F       1  UNL1       -0.2040
     30 C         141.4427  142.3358  166.8897 C.ar    1  UNL1        0.0269
     31 C         139.5300  140.5076  169.8475 C.2     1  UNL1        0.2481
     32 O         140.0498  140.9678  171.1771 O.2     1  UNL1       -0.2701
     33 N         138.1947  139.8300  169.7581 N.am    1  UNL1       -0.2994
     34 H         137.8535  139.5279  168.8854 H       1  UNL1        0.1498
     35 C         137.3794  139.6127  170.9982 C.3     1  UNL1        0.1070
     36 C         136.2123  138.6707  170.9730 C.3     1  UNL1        0.0936
     37 N         135.9705  137.7451  172.1284 N.3     1  UNL1       -0.2712
     38 C         136.8964  136.6634  172.6003 C.3     1  UNL1        0.0722
     39 C         136.2584  135.9885  173.7783 C.3     1  UNL1        0.0188
     40 C         134.9383  136.6531  174.0344 C.3     1  UNL1        0.0188
     41 C         134.7604  137.7388  173.0147 C.3     1  UNL1        0.0722
@<TRIPOS>BOND
     1     7     8    2
     2     8     9   am
     3     9     1    1
     4     1     2    1
     5     2     3    1
     6     3     4    1
     7     4    23    1
     8    23    24    1
     9    24    25   ar
    10    25    26   ar
    11    26    27   ar
    12    27    31    1
    13    31    32    2
    14    31    33   am
    15    33    35    1
    16    35    36    1
    17    36    37    1
    18    37    38    1
    19    38    39    1
    20    39    40    1
    21    40    41    1
    22    27    28   ar
    23    28    29    1
    24    28    30   ar
    25     4     5    1
    26     5     6    1
    27     8    11    1
    28    11    12   ar
    29    12    13   ar
    30    13    14    2
    31    13    15   ar
    32    15    16   ar
    33    16    17   ar
    34    17    18   ar
    35    18    19    1
    36    18    20   ar
    37    20    21   ar
    38    21    22   ar
    39     6     1    1
    40    22    11   ar
    41    30    24   ar
    42    21    15   ar
    43    41    37    1
    44     9    10    1
    45    33    34    1
@<TRIPOS>MOLECULE
*****
 41 45 0 0 0
SMALL
GASTEIGER

@<TRIPOS>ATOM
      1 C         141.4090  139.8051  161.5350 C.3     1  UNL1        0.0747
      2 C         141.3669  141.0039  160.6344 C.3     1  UNL1        0.0369
      3 C         141.5533  140.8378  159.1554 C.3     1  UNL1        0.0741
      4 N         141.7818  139.4728  158.5768 N.3     1  UNL1       -0.2689
      5 C         141.8239  138.2739  159.4774 C.3     1  UNL1        0.0741
      6 C         141.6375  138.4401  160.9565 C.3     1  UNL1        0.0369
      7 O         138.7233  139.3035  162.7742 O.2     1  UNL1       -0.2668
      8 C         139.8798  139.7204  163.6336 C.2     1  UNL1        0.2806
      9 N         141.2226  139.9712  163.0141 N.am    1  UNL1       -0.2999
     10 H         141.9817  140.2448  163.5782 H       1  UNL1        0.1498
     11 C         139.6935  139.8865  165.1128 C.ar    1  UNL1        0.2014
     12 C         138.6875  139.0453  165.8411 C.ar    1  UNL1        0.0843
     13 C         138.5012  139.2114  167.3202 C.ar    1  UNL1        0.2018
     14 O         137.4953  138.3702  168.0485 O.2     1  UNL1       -0.2864
     15 C         139.3208  140.2188  168.0710 C.ar    1  UNL1        0.0737
     16 C         139.1344  140.3849  169.5500 C.ar    1  UNL1        0.0085
     17 C         139.9540  141.3922  170.3007 C.ar    1  UNL1        0.0299
     18 C         140.9599  142.2334  169.5724 C.ar    1  UNL1        0.1432
     19 F         141.7795  143.2408  170.3231 F       1  UNL1       -0.2041
     20 C         141.1463  142.0673  168.0933 C.ar    1  UNL1        0.0672
     21 C         140.3267  141.0600  167.3426 C.ar    1  UNL1        0.1508
     22 O         140.5130  140.8939  165.8635 O.2     1  UNL1       -0.4486
     23 C         141.9681  139.3067  157.0978 C.3     1  UNL1        0.0992
     24 C         141.8644  137.9451  156.4770 C.ar    1  UNL1       -0.0039
     25 C         140.5758  137.5033  155.8491 C.ar    1  UNL1       -0.0026
     26 C         140.4721  136.1417  155.2283 C.ar    1  UNL1        0.0065
     27 C         141.6570  135.2219  155.2355 C.ar    1  UNL1        0.0807
     28 C         142.9455  135.6637  155.8634 C.ar    1  UNL1        0.1442
     29 F         144.1305  134.7439  155.8706 F       1  UNL1       -0.2040
     30 C         143.0493  137.0253  156.4842 C.ar    1  UNL1        0.0269
     31 C         141.5532  133.8604  154.6147 C.2     1  UNL1        0.2481
     32 O         142.0660  133.6290  153.2242 O.2     1  UNL1       -0.2701
     33 N         140.9368  132.7301  155.3844 N.am    1  UNL1       -0.2994
     34 H         140.6002  132.8820  156.2971 H       1  UNL1        0.1498
     35 C         140.8330  131.3686  154.7637 C.3     1  UNL1        0.1070
     36 C         141.8913  130.3397  155.0313 C.3     1  UNL1        0.0936
     37 N         143.0847  130.6917  155.8691 N.3     1  UNL1       -0.2712
     38 C         144.2967  131.4440  155.4051 C.3     1  UNL1        0.0722
     39 C         145.2367  131.5704  156.5673 C.3     1  UNL1        0.0188
     40 C         144.6057  130.8962  157.7494 C.3     1  UNL1        0.0188
     41 C         143.2757  130.3531  157.3179 C.3     1  UNL1        0.0722
@<TRIPOS>BOND
     1     7     8    2
     2     8     9   am
     3     9     1    1
     4     1     2    1
     5     2     3    1
     6     3     4    1
     7     4    23    1
     8    23    24    1
     9    24    25   ar
    10    25    26   ar
    11    26    27   ar
    12    27    31    1
    13    31    32    2
    14    31    33   am
    15    33    35    1
    16    35    36    1
    17    36    37    1
    18    37    38    1
    19    38    39    1
    20    39    40    1
    21    40    41    1
    22    27    28   ar
    23    28    29    1
    24    28    30   ar
    25     4     5    1
    26     5     6    1
    27     8    11    1
    28    11    12   ar
    29    12    13   ar
    30    13    14    2
    31    13    15   ar
    32    15    16   ar
    33    16    17   ar
    34    17    18   ar
    35    18    19    1
    36    18    20   ar
    37    20    21   ar
    38    21    22   ar
    39     6     1    1
    40    22    11   ar
    41    30    24   ar
    42    21    15   ar
    43    41    37    1
    44     9    10    1
    45    33    34    1
@<TRIPOS>MOLECULE
*****
 41 45 0 0 0
SMALL
GASTEIGER

@<TRIPOS>ATOM
      1 C         142.0292  138.7802  161.0422 C.3     1  UNL1        0.0747
      2 C         141.0315  139.8448  161.3902 C.3     1  UNL1        0.0369
      3 C         141.2472  140.7094  162.5968 C.3     1  UNL1        0.0741
      4 N         142.4607  140.5093  163.4556 N.3     1  UNL1       -0.2689
      5 C         143.4585  139.4447  163.1076 C.3     1  UNL1        0.0741
      6 C         143.2427  138.5801  161.9009 C.3     1  UNL1        0.0369
      7 O         143.7287  139.1624  158.5998 O.2     1  UNL1       -0.2668
      8 C         142.6632  138.1068  158.6144 C.2     1  UNL1        0.2806
      9 N         141.8135  137.9157  159.8356 N.am    1  UNL1       -0.2999
     10 H         141.1142  137.2228  159.8452 H       1  UNL1        0.1498
     11 C         142.4475  137.2422  157.4077 C.ar    1  UNL1        0.2014
     12 C         143.2787  136.0093  157.2101 C.ar    1  UNL1        0.0843
     13 C         143.0630  135.1447  156.0036 C.ar    1  UNL1        0.2018
     14 O         143.8943  133.9119  155.8060 O.2     1  UNL1       -0.2864
     15 C         142.0159  135.5130  154.9945 C.ar    1  UNL1        0.0737
     16 C         141.8002  134.6484  153.7879 C.ar    1  UNL1        0.0085
     17 C         140.7532  135.0166  152.7789 C.ar    1  UNL1        0.0299
     18 C         139.9219  136.2495  152.9765 C.ar    1  UNL1        0.1432
     19 F         138.8749  136.6177  151.9675 F       1  UNL1       -0.2041
     20 C         140.1377  137.1141  154.1831 C.ar    1  UNL1        0.0672
     21 C         141.1847  136.7458  155.1921 C.ar    1  UNL1        0.1508
     22 O         141.4004  137.6104  156.3988 O.2     1  UNL1       -0.4486
     23 C         142.6765  141.3738  164.6622 C.3     1  UNL1        0.0992
     24 C         141.8480  141.1619  165.8945 C.ar    1  UNL1       -0.0039
     25 C         141.4554  139.7736  166.3047 C.ar    1  UNL1       -0.0026
     26 C         140.6269  139.5616  167.5371 C.ar    1  UNL1        0.0065
     27 C         140.1909  140.7380  168.3592 C.ar    1  UNL1        0.0807
     28 C         140.5835  142.1264  167.9490 C.ar    1  UNL1        0.1442
     29 F         140.1476  143.3029  168.7712 F       1  UNL1       -0.2040
     30 C         141.4120  142.3383  166.7167 C.ar    1  UNL1        0.0269
     31 C         139.3624  140.5261  169.5915 C.2     1  UNL1        0.2481
     32 O         139.7714  141.1594  170.8883 O.2     1  UNL1       -0.2701
     33 N         138.1249  139.6809  169.5271 N.am    1  UNL1       -0.2994
     34 H         137.8565  139.2652  168.6760 H       1  UNL1        0.1498
     35 C         137.2964  139.4689  170.7594 C.3     1  UNL1        0.1070
     36 C         136.2319  138.4123  170.7749 C.3     1  UNL1        0.0936
     37 N         135.9950  137.6044  172.0163 N.3     1  UNL1       -0.2712
     38 C         135.0135  137.9265  173.1040 C.3     1  UNL1        0.0722
     39 C         135.1100  136.8537  174.1480 C.3     1  UNL1        0.0188
     40 C         136.1511  135.8686  173.7056 C.3     1  UNL1        0.0188
     41 C         136.6981  136.3326  172.3882 C.3     1  UNL1        0.0722
@<TRIPOS>BOND
     1     7     8    2
     2     8     9   am
     3     9     1    1
     4     1     2    1
     5     2     3    1
     6     3     4    1
     7     4    23    1
     8    23    24    1
     9    24    25   ar
    10    25    26   ar
    11    26    27   ar
    12    27    31    1
    13    31    32    2
    14    31    33   am
    15    33    35    1
    16    35    36    1
    17    36    37    1
    18    37    38    1
    19    38    39    1
    20    39    40    1
    21    40    41    1
    22    27    28   ar
    23    28    29    1
    24    28    30   ar
    25     4     5    1
    26     5     6    1
    27     8    11    1
    28    11    12   ar
    29    12    13   ar
    30    13    14    2
    31    13    15   ar
    32    15    16   ar
    33    16    17   ar
    34    17    18   ar
    35    18    19    1
    36    18    20   ar
    37    20    21   ar
    38    21    22   ar
    39     6     1    1
    40    22    11   ar
    41    30    24   ar
    42    21    15   ar
    43    41    37    1
    44     9    10    1
    45    33    34    1
@<TRIPOS>MOLECULE
*****
 41 45 0 0 0
SMALL
GASTEIGER

@<TRIPOS>ATOM
      1 C         139.5063  142.2758  157.4837 C.3     1  UNL1        0.0747
      2 C         140.6433  141.2980  157.5174 C.3     1  UNL1        0.0369
      3 C         140.6111  140.1429  158.4736 C.3     1  UNL1        0.0741
      4 N         139.4418  139.9654  159.3964 N.3     1  UNL1       -0.2689
      5 C         138.3048  140.9432  159.3627 C.3     1  UNL1        0.0741
      6 C         138.3370  142.0984  158.4064 C.3     1  UNL1        0.0369
      7 O         140.2066  145.0209  158.4705 O.2     1  UNL1       -0.2668
      8 C         139.8887  144.8035  157.0209 C.2     1  UNL1        0.2806
      9 N         139.5385  143.4310  156.5275 N.am    1  UNL1       -0.2999
     10 H         139.3298  143.2883  155.5760 H       1  UNL1        0.1498
     11 C         139.9209  145.9587  156.0645 C.ar    1  UNL1        0.2014
     12 C         140.6059  145.8152  154.7378 C.ar    1  UNL1        0.0843
     13 C         140.6382  146.9703  153.7815 C.ar    1  UNL1        0.2018
     14 O         141.3232  146.8267  152.4548 O.2     1  UNL1       -0.2864
     15 C         139.9853  148.2690  154.1518 C.ar    1  UNL1        0.0737
     16 C         140.0176  149.4241  153.1954 C.ar    1  UNL1        0.0085
     17 C         139.3648  150.7228  153.5658 C.ar    1  UNL1        0.0299
     18 C         138.6797  150.8664  154.8925 C.ar    1  UNL1        0.1432
     19 F         138.0269  152.1652  155.2628 F       1  UNL1       -0.2041
     20 C         138.6475  149.7113  155.8488 C.ar    1  UNL1        0.0672
     21 C         139.3003  148.4126  155.4785 C.ar    1  UNL1        0.1508
     22 O         139.2681  147.2574  156.4348 O.2     1  UNL1       -0.4486
     23 C         139.4096  138.8103  160.3526 C.3     1  UNL1        0.0992
     24 C         140.1907  138.8734  161.6316 C.ar    1  UNL1       -0.0039
     25 C         140.8631  140.1513  162.0375 C.ar    1  UNL1       -0.0026
     26 C         141.6443  140.2144  163.3165 C.ar    1  UNL1        0.0065
     27 C         141.7531  138.9996  164.1896 C.ar    1  UNL1        0.0807
     28 C         141.0807  137.7216  163.7837 C.ar    1  UNL1        0.1442
     29 F         141.1895  136.5067  164.6568 F       1  UNL1       -0.2040
     30 C         140.2995  137.6585  162.5047 C.ar    1  UNL1        0.0269
     31 C         142.5342  139.0627  165.4686 C.2     1  UNL1        0.2481
     32 O         144.0014  138.7507  165.4674 O.2     1  UNL1       -0.2701
     33 N         141.8482  139.4377  166.7487 N.am    1  UNL1       -0.2994
     34 H         140.8852  139.6424  166.7494 H       1  UNL1        0.1498
     35 C         142.6294  139.5008  168.0276 C.3     1  UNL1        0.1070
     36 C         141.9241  139.7649  169.3250 C.3     1  UNL1        0.0936
     37 N         141.2452  141.0826  169.5548 N.3     1  UNL1       -0.2712
     38 C         141.4301  142.3246  168.7342 C.3     1  UNL1        0.0722
     39 C         140.5614  143.3992  169.3179 C.3     1  UNL1        0.0188
     40 C         139.8397  142.8213  170.4991 C.3     1  UNL1        0.0188
     41 C         140.2623  141.3896  170.6455 C.3     1  UNL1        0.0722
@<TRIPOS>BOND
     1     7     8    2
     2     8     9   am
     3     9     1    1
     4     1     2    1
     5     2     3    1
     6     3     4    1
     7     4    23    1
     8    23    24    1
     9    24    25   ar
    10    25    26   ar
    11    26    27   ar
    12    27    31    1
    13    31    32    2
    14    31    33   am
    15    33    35    1
    16    35    36    1
    17    36    37    1
    18    37    38    1
    19    38    39    1
    20    39    40    1
    21    40    41    1
    22    27    28   ar
    23    28    29    1
    24    28    30   ar
    25     4     5    1
    26     5     6    1
    27     8    11    1
    28    11    12   ar
    29    12    13   ar
    30    13    14    2
    31    13    15   ar
    32    15    16   ar
    33    16    17   ar
    34    17    18   ar
    35    18    19    1
    36    18    20   ar
    37    20    21   ar
    38    21    22   ar
    39     6     1    1
    40    22    11   ar
    41    30    24   ar
    42    21    15   ar
    43    41    37    1
    44     9    10    1
    45    33    34    1
@<TRIPOS>MOLECULE
*****
 41 45 0 0 0
SMALL
GASTEIGER

@<TRIPOS>ATOM
      1 C         143.2290  139.4467  156.8578 C.3     1  UNL1        0.0747
      2 C         144.4666  140.2942  156.8552 C.3     1  UNL1        0.0369
      3 C         144.5037  141.5700  157.6432 C.3     1  UNL1        0.0741
      4 N         143.3030  141.9984  158.4338 N.3     1  UNL1       -0.2689
      5 C         142.0654  141.1509  158.4364 C.3     1  UNL1        0.0741
      6 C         142.0284  139.8750  157.6484 C.3     1  UNL1        0.0369
      7 O         143.0509  136.8106  158.2788 O.2     1  UNL1       -0.2668
      8 C         143.1029  136.8529  156.7803 C.2     1  UNL1        0.2806
      9 N         143.1920  138.1709  156.0698 N.am    1  UNL1       -0.2999
     10 H         143.2261  138.1987  155.0863 H       1  UNL1        0.1498
     11 C         143.0659  135.5770  155.9923 C.ar    1  UNL1        0.2014
     12 C         142.2370  135.4896  154.7452 C.ar    1  UNL1        0.0843
     13 C         142.1999  134.2139  153.9571 C.ar    1  UNL1        0.2018
     14 O         141.3710  134.1265  152.7100 O.2     1  UNL1       -0.2864
     15 C         142.9918  133.0255  154.4161 C.ar    1  UNL1        0.0737
     16 C         142.9547  131.7497  153.6281 C.ar    1  UNL1        0.0085
     17 C         143.7466  130.5614  154.0871 C.ar    1  UNL1        0.0299
     18 C         144.5756  130.6488  155.3342 C.ar    1  UNL1        0.1432
     19 F         145.3675  129.4604  155.7933 F       1  UNL1       -0.2041
     20 C         144.6126  131.9246  156.1223 C.ar    1  UNL1        0.0672
     21 C         143.8207  133.1129  155.6632 C.ar    1  UNL1        0.1508
     22 O         143.8578  134.3887  156.4513 O.2     1  UNL1       -0.4486
     23 C         143.3400  143.2741  159.2218 C.3     1  UNL1        0.0992
     24 C         143.4683  143.2296  160.7156 C.ar    1  UNL1       -0.0039
     25 C         142.4142  143.8581  161.5780 C.ar    1  UNL1       -0.0026
     26 C         142.5424  143.8136  163.0718 C.ar    1  UNL1        0.0065
     27 C         143.7248  143.1404  163.7033 C.ar    1  UNL1        0.0807
     28 C         144.7789  142.5119  162.8410 C.ar    1  UNL1        0.1442
     29 F         145.9614  141.8387  163.4724 F       1  UNL1       -0.2040
     30 C         144.6507  142.5564  161.3471 C.ar    1  UNL1        0.0269
     31 C         143.8531  143.0959  165.1971 C.2     1  UNL1        0.2481
     32 O         144.8773  143.9467  165.8877 O.2     1  UNL1       -0.2701
     33 N         142.9571  142.2005  166.0005 N.am    1  UNL1       -0.2994
     34 H         142.2848  141.6420  165.5472 H       1  UNL1        0.1498
     35 C         143.0853  142.1559  167.4943 C.3     1  UNL1        0.1070
     36 C         142.8729  140.8644  168.2271 C.3     1  UNL1        0.0936
     37 N         141.5793  140.6125  168.9434 N.3     1  UNL1       -0.2712
     38 C         140.2077  140.6941  168.3414 C.3     1  UNL1        0.0722
     39 C         139.2109  140.3668  169.4135 C.3     1  UNL1        0.0188
     40 C         139.9663  140.0830  170.6779 C.3     1  UNL1        0.0188
     41 C         141.4300  140.2349  170.3874 C.3     1  UNL1        0.0722
@<TRIPOS>BOND
     1     7     8    2
     2     8     9   am
     3     9     1    1
     4     1     2    1
     5     2     3    1
     6     3     4    1
     7     4    23    1
     8    23    24    1
     9    24    25   ar
    10    25    26   ar
    11    26    27   ar
    12    27    31    1
    13    31    32    2
    14    31    33   am
    15    33    35    1
    16    35    36    1
    17    36    37    1
    18    37    38    1
    19    38    39    1
    20    39    40    1
    21    40    41    1
    22    27    28   ar
    23    28    29    1
    24    28    30   ar
    25     4     5    1
    26     5     6    1
    27     8    11    1
    28    11    12   ar
    29    12    13   ar
    30    13    14    2
    31    13    15   ar
    32    15    16   ar
    33    16    17   ar
    34    17    18   ar
    35    18    19    1
    36    18    20   ar
    37    20    21   ar
    38    21    22   ar
    39     6     1    1
    40    22    11   ar
    41    30    24   ar
    42    21    15   ar
    43    41    37    1
    44     9    10    1
    45    33    34    1
@<TRIPOS>MOLECULE
*****
 41 45 0 0 0
SMALL
GASTEIGER

@<TRIPOS>ATOM
      1 C         142.6977  140.3106  158.1669 C.3     1  UNL1        0.0747
      2 C         143.9780  141.0879  158.2501 C.3     1  UNL1        0.0369
      3 C         144.1519  142.1353  159.3096 C.3     1  UNL1        0.0741
      4 N         143.0456  142.4056  160.2859 N.3     1  UNL1       -0.2689
      5 C         141.7654  141.6283  160.2027 C.3     1  UNL1        0.0741
      6 C         141.5915  140.5808  159.1431 C.3     1  UNL1        0.0369
      7 O         143.0054  137.4085  158.8618 O.2     1  UNL1       -0.2668
      8 C         142.6776  137.8121  157.4548 C.2     1  UNL1        0.2806
      9 N         142.5238  139.2632  157.1074 N.am    1  UNL1       -0.2999
     10 H         142.3086  139.5281  156.1839 H       1  UNL1        0.1498
     11 C         142.5037  136.7647  156.3953 C.ar    1  UNL1        0.2014
     12 C         142.3607  137.1685  154.9578 C.ar    1  UNL1        0.0843
     13 C         142.1867  136.1212  153.8982 C.ar    1  UNL1        0.2018
     14 O         142.0437  136.5250  152.4607 O.2     1  UNL1       -0.2864
     15 C         142.1557  134.6698  154.2762 C.ar    1  UNL1        0.0737
     16 C         141.9817  133.6224  153.2166 C.ar    1  UNL1        0.0085
     17 C         141.9507  132.1712  153.5946 C.ar    1  UNL1        0.0299
     18 C         142.0937  131.7674  155.0321 C.ar    1  UNL1        0.1432
     19 F         142.0627  130.3160  155.4100 F       1  UNL1       -0.2041
     20 C         142.2677  132.8147  156.0916 C.ar    1  UNL1        0.0672
     21 C         142.2987  134.2660  155.7137 C.ar    1  UNL1        0.1508
     22 O         142.4727  135.3134  156.7732 O.2     1  UNL1       -0.4486
     23 C         143.2196  143.4530  161.3454 C.3     1  UNL1        0.0992
     24 C         143.1978  143.0652  162.7942 C.ar    1  UNL1       -0.0039
     25 C         144.4166  142.4628  163.4278 C.ar    1  UNL1       -0.0026
     26 C         144.3948  142.0750  164.8766 C.ar    1  UNL1        0.0065
     27 C         143.1541  142.2896  165.6919 C.ar    1  UNL1        0.0807
     28 C         141.9353  142.8920  165.0583 C.ar    1  UNL1        0.1442
     29 F         140.6946  143.1067  165.8736 F       1  UNL1       -0.2040
     30 C         141.9571  143.2799  163.6095 C.ar    1  UNL1        0.0269
     31 C         143.1323  141.9018  167.1407 C.2     1  UNL1        0.2481
     32 O         142.4595  140.6307  167.5668 O.2     1  UNL1       -0.2701
     33 N         143.7834  142.7850  168.1634 N.am    1  UNL1       -0.2994
     34 H         144.2250  143.6193  167.8837 H       1  UNL1        0.1498
     35 C         143.7615  142.3972  169.6123 C.3     1  UNL1        0.1070
     36 C         142.5751  142.7416  170.4630 C.3     1  UNL1        0.0936
     37 N         141.3490  141.8782  170.4250 N.3     1  UNL1       -0.2712
     38 C         139.9612  142.3322  170.0815 C.3     1  UNL1        0.0722
     39 C         139.0501  141.1438  170.1680 C.3     1  UNL1        0.0188
     40 C         139.8747  139.9553  170.5651 C.3     1  UNL1        0.0188
     41 C         141.2955  140.4092  170.7239 C.3     1  UNL1        0.0722
@<TRIPOS>BOND
     1     7     8    2
     2     8     9   am
     3     9     1    1
     4     1     2    1
     5     2     3    1
     6     3     4    1
     7     4    23    1
     8    23    24    1
     9    24    25   ar
    10    25    26   ar
    11    26    27   ar
    12    27    31    1
    13    31    32    2
    14    31    33   am
    15    33    35    1
    16    35    36    1
    17    36    37    1
    18    37    38    1
    19    38    39    1
    20    39    40    1
    21    40    41    1
    22    27    28   ar
    23    28    29    1
    24    28    30   ar
    25     4     5    1
    26     5     6    1
    27     8    11    1
    28    11    12   ar
    29    12    13   ar
    30    13    14    2
    31    13    15   ar
    32    15    16   ar
    33    16    17   ar
    34    17    18   ar
    35    18    19    1
    36    18    20   ar
    37    20    21   ar
    38    21    22   ar
    39     6     1    1
    40    22    11   ar
    41    30    24   ar
    42    21    15   ar
    43    41    37    1
    44     9    10    1
    45    33    34    1
