@<TRIPOS>MOLECULE
*****
 35 39 0 0 0
SMALL
GASTEIGER

@<TRIPOS>ATOM
      1 C         143.5844  137.6157  156.0755 C.ar    1  UNL1        0.0829
      2 C         144.5389  138.1575  155.0531 C.ar    1  UNL1        0.0193
      3 C         145.1467  139.5160  155.2402 C.ar    1  UNL1        0.0074
      4 C         144.8001  140.3326  156.4497 C.ar    1  UNL1        0.0676
      5 C         145.4081  141.6911  156.6369 C.ar    1  UNL1        0.1376
      6 N         145.0614  142.5077  157.8464 N.ar    1  UNL1       -0.1986
      7 C         144.1069  141.9658  158.8688 C.ar    1  UNL1        0.2227
      8 N         143.4990  140.6074  158.6817 N.ar    1  UNL1       -0.1944
      9 C         143.8457  139.7907  157.4721 C.ar    1  UNL1        0.1678
     10 N         143.2378  138.4323  157.2850 N.ar    1  UNL1       -0.2264
     11 N         146.3625  142.2329  155.6145 N.pl3   1  UNL1       -0.2897
     12 C         147.8234  141.9046  155.7039 C.3     1  UNL1        0.1242
     13 C         148.7779  142.4465  154.6815 C.3     1  UNL1        0.1636
     14 O         148.2715  143.3166  153.5696 O.3     1  UNL1       -0.3502
     15 C         146.8106  143.6450  153.4801 C.3     1  UNL1        0.1618
     16 C         145.8561  143.1031  154.5025 C.3     1  UNL1        0.1038
     17 C         144.3952  143.4314  154.4130 C.3     1  UNL1        0.0241
     18 N         143.7603  142.7824  160.0784 N.pl3   1  UNL1       -0.2747
     19 C         144.6991  142.8269  161.2475 C.3     1  UNL1        0.1256
     20 C         144.3525  143.6435  162.4570 C.3     1  UNL1        0.1637
     21 O         143.0671  144.4157  162.4974 O.3     1  UNL1       -0.3502
     22 C         142.1284  144.3712  161.3284 C.3     1  UNL1        0.1619
     23 C         142.4750  143.5546  160.1188 C.3     1  UNL1        0.1052
     24 C         141.5363  143.5102  158.9497 C.3     1  UNL1        0.0242
     25 C         141.7607  133.5402  155.5142 C.ar    1  UNL1        0.1370
     26 C         141.1087  134.7444  154.9020 C.ar    1  UNL1        0.0367
     27 C         141.7166  136.1029  155.0891 C.ar    1  UNL1        0.0046
     28 C         142.9765  136.2572  155.8884 C.ar    1  UNL1        0.0177
     29 C         143.6286  135.0530  156.5005 C.ar    1  UNL1        0.0027
     30 C         143.0207  133.6945  156.3134 C.ar    1  UNL1        0.0410
     31 C         143.6728  132.4903  156.9256 C.3     1  UNL1        0.1666
     32 O         142.8433  131.4829  157.6652 O.3     1  UNL1       -0.3771
     33 H         142.4746  131.8915  158.4640 H       1  UNL1        0.2109
     34 C         141.4203  131.4070  154.0709 C.3     1  UNL1        0.2525
     35 O         141.1529  132.1817  155.3271 O.3     1  UNL1       -0.4717
@<TRIPOS>BOND
     1    34    35    1
     2    35    25    1
     3    25    26   ar
     4    26    27   ar
     5    27    28   ar
     6    28     1    1
     7     1     2   ar
     8     2     3   ar
     9     3     4   ar
    10     4     5   ar
    11     5    11    1
    12    11    12    1
    13    12    13    1
    14    13    14    1
    15    14    15    1
    16    15    16    1
    17    16    17    1
    18     5     6   ar
    19     6     7   ar
    20     7    18    1
    21    18    19    1
    22    19    20    1
    23    20    21    1
    24    21    22    1
    25    22    23    1
    26    23    24    1
    27     7     8   ar
    28     8     9   ar
    29     9    10   ar
    30    28    29   ar
    31    29    30   ar
    32    30    31    1
    33    31    32    1
    34    30    25   ar
    35    10     1   ar
    36     9     4   ar
    37    16    11    1
    38    23    18    1
    39    32    33    1
@<TRIPOS>MOLECULE
*****
 35 39 0 0 0
SMALL
GASTEIGER

@<TRIPOS>ATOM
      1 C         139.9927  140.5035  162.9575 C.ar    1  UNL1        0.0829
      2 C         140.0244  141.9112  162.4405 C.ar    1  UNL1        0.0193
      3 C         140.3551  142.1743  161.0013 C.ar    1  UNL1        0.0074
      4 C         140.6542  141.0297  160.0791 C.ar    1  UNL1        0.0676
      5 C         140.9850  141.2929  158.6398 C.ar    1  UNL1        0.1376
      6 N         141.2842  140.1483  157.7176 N.ar    1  UNL1       -0.1986
      7 C         141.2525  138.7405  158.2347 C.ar    1  UNL1        0.2227
      8 N         140.9218  138.4774  159.6739 N.ar    1  UNL1       -0.1944
      9 C         140.6226  139.6220  160.5961 C.ar    1  UNL1        0.1678
     10 N         140.2919  139.3589  162.0353 N.ar    1  UNL1       -0.2264
     11 N         141.0166  142.7006  158.1228 N.pl3   1  UNL1       -0.2897
     12 C         139.7742  143.3184  157.5529 C.3     1  UNL1        0.1242
     13 C         139.8059  144.7261  157.0359 C.3     1  UNL1        0.1636
     14 O         141.0799  145.5161  157.0888 O.3     1  UNL1       -0.3502
     15 C         142.3223  144.8983  157.6587 C.3     1  UNL1        0.1618
     16 C         142.2907  143.4906  158.1757 C.3     1  UNL1        0.1038
     17 C         143.5331  142.8728  158.7456 C.3     1  UNL1        0.0241
     18 N         141.5517  137.5959  157.3125 N.pl3   1  UNL1       -0.2747
     19 C         142.8379  136.8367  157.4521 C.3     1  UNL1        0.1256
     20 C         143.1370  135.6922  156.5300 C.3     1  UNL1        0.1637
     21 O         142.1500  135.3068  155.4682 O.3     1  UNL1       -0.3502
     22 C         140.8639  136.0660  155.3286 C.3     1  UNL1        0.1619
     23 C         140.5647  137.2105  156.2508 C.3     1  UNL1        0.1052
     24 C         139.2786  137.9697  156.1113 C.3     1  UNL1        0.0242
     25 C         139.0004  139.7140  167.2752 C.ar    1  UNL1        0.1370
     26 C         139.7929  140.9304  166.8981 C.ar    1  UNL1        0.0367
     27 C         140.1237  141.1936  165.4588 C.ar    1  UNL1        0.0046
     28 C         139.6620  140.2403  164.3968 C.ar    1  UNL1        0.0177
     29 C         138.8695  139.0239  164.7739 C.ar    1  UNL1        0.0027
     30 C         138.5387  138.7607  166.2130 C.ar    1  UNL1        0.0410
     31 C         137.7462  137.5442  166.5901 C.3     1  UNL1        0.1666
     32 O         136.6902  137.6364  167.6513 O.3     1  UNL1       -0.3771
     33 H         137.1064  137.8302  168.5058 H       1  UNL1        0.2109
     34 C         139.1964  140.3614  169.7836 C.3     1  UNL1        0.2525
     35 O         138.6697  139.4508  168.7144 O.3     1  UNL1       -0.4717
@<TRIPOS>BOND
     1    34    35    1
     2    35    25    1
     3    25    26   ar
     4    26    27   ar
     5    27    28   ar
     6    28     1    1
     7     1     2   ar
     8     2     3   ar
     9     3     4   ar
    10     4     5   ar
    11     5    11    1
    12    11    12    1
    13    12    13    1
    14    13    14    1
    15    14    15    1
    16    15    16    1
    17    16    17    1
    18     5     6   ar
    19     6     7   ar
    20     7    18    1
    21    18    19    1
    22    19    20    1
    23    20    21    1
    24    21    22    1
    25    22    23    1
    26    23    24    1
    27     7     8   ar
    28     8     9   ar
    29     9    10   ar
    30    28    29   ar
    31    29    30   ar
    32    30    31    1
    33    31    32    1
    34    30    25   ar
    35    10     1   ar
    36     9     4   ar
    37    16    11    1
    38    23    18    1
    39    32    33    1
@<TRIPOS>MOLECULE
*****
 35 39 0 0 0
SMALL
GASTEIGER

@<TRIPOS>ATOM
      1 C         139.6782  139.5857  162.2673 C.ar    1  UNL1        0.0829
      2 C         140.3760  138.4372  161.6009 C.ar    1  UNL1        0.0193
      3 C         140.6286  138.4688  160.1227 C.ar    1  UNL1        0.0074
      4 C         140.1834  139.6489  159.3108 C.ar    1  UNL1        0.0676
      5 C         140.4360  139.6805  157.8325 C.ar    1  UNL1        0.1376
      6 N         139.9908  140.8606  157.0206 N.ar    1  UNL1       -0.1986
      7 C         139.2930  142.0091  157.6870 C.ar    1  UNL1        0.2227
      8 N         139.0404  141.9775  159.1652 N.ar    1  UNL1       -0.1944
      9 C         139.4856  140.7974  159.9771 C.ar    1  UNL1        0.1678
     10 N         139.2330  140.7658  161.4554 N.ar    1  UNL1       -0.2264
     11 N         141.1337  138.5320  157.1662 N.pl3   1  UNL1       -0.2897
     12 C         140.3394  137.3681  156.6521 C.3     1  UNL1        0.1242
     13 C         141.0372  136.2195  155.9858 C.3     1  UNL1        0.1636
     14 O         142.5294  136.2349  155.8336 O.3     1  UNL1       -0.3502
     15 C         143.3237  137.3988  156.3476 C.3     1  UNL1        0.1618
     16 C         142.6260  138.5473  157.0140 C.3     1  UNL1        0.1038
     17 C         143.4203  139.7112  157.5280 C.3     1  UNL1        0.0241
     18 N         138.8478  143.1892  156.8751 N.pl3   1  UNL1       -0.2747
     19 C         139.6828  144.4349  156.8423 C.3     1  UNL1        0.1256
     20 C         139.2376  145.6150  156.0304 C.3     1  UNL1        0.1637
     21 O         137.9574  145.5494  155.2513 O.3     1  UNL1       -0.3502
     22 C         137.1225  144.3037  155.2842 C.3     1  UNL1        0.1619
     23 C         137.5677  143.1236  156.0961 C.3     1  UNL1        0.1052
     24 C         136.7327  141.8779  156.1290 C.3     1  UNL1        0.0242
     25 C         138.9204  139.4910  166.7021 C.ar    1  UNL1        0.1370
     26 C         139.6128  140.6697  166.0845 C.ar    1  UNL1        0.0367
     27 C         139.8654  140.7013  164.6062 C.ar    1  UNL1        0.0046
     28 C         139.4256  139.5542  163.7456 C.ar    1  UNL1        0.0177
     29 C         138.7333  138.3755  164.3631 C.ar    1  UNL1        0.0027
     30 C         138.4807  138.3439  165.8413 C.ar    1  UNL1        0.0410
     31 C         137.7883  137.1652  166.4589 C.3     1  UNL1        0.1666
     32 O         136.7408  137.3775  167.5112 O.3     1  UNL1       -0.3771
     33 H         137.1509  137.7582  168.3035 H       1  UNL1        0.2109
     34 C         139.5244  140.2724  169.1050 C.3     1  UNL1        0.2525
     35 O         138.6678  139.4594  168.1803 O.3     1  UNL1       -0.4717
@<TRIPOS>BOND
     1    34    35    1
     2    35    25    1
     3    25    26   ar
     4    26    27   ar
     5    27    28   ar
     6    28     1    1
     7     1     2   ar
     8     2     3   ar
     9     3     4   ar
    10     4     5   ar
    11     5    11    1
    12    11    12    1
    13    12    13    1
    14    13    14    1
    15    14    15    1
    16    15    16    1
    17    16    17    1
    18     5     6   ar
    19     6     7   ar
    20     7    18    1
    21    18    19    1
    22    19    20    1
    23    20    21    1
    24    21    22    1
    25    22    23    1
    26    23    24    1
    27     7     8   ar
    28     8     9   ar
    29     9    10   ar
    30    28    29   ar
    31    29    30   ar
    32    30    31    1
    33    31    32    1
    34    30    25   ar
    35    10     1   ar
    36     9     4   ar
    37    16    11    1
    38    23    18    1
    39    32    33    1
@<TRIPOS>MOLECULE
*****
 35 39 0 0 0
SMALL
GASTEIGER

@<TRIPOS>ATOM
      1 C         143.1940  137.6484  156.5057 C.ar    1  UNL1        0.0829
      2 C         142.5176  138.4485  157.5791 C.ar    1  UNL1        0.0193
      3 C         143.0122  139.8247  157.9129 C.ar    1  UNL1        0.0074
      4 C         144.1830  140.4008  157.1732 C.ar    1  UNL1        0.0676
      5 C         144.6775  141.7771  157.5071 C.ar    1  UNL1        0.1376
      6 N         145.8484  142.3533  156.7674 N.ar    1  UNL1       -0.1986
      7 C         146.5248  141.5531  155.6939 C.ar    1  UNL1        0.2227
      8 N         146.0303  140.1769  155.3601 N.ar    1  UNL1       -0.1944
      9 C         144.8594  139.6008  156.0998 C.ar    1  UNL1        0.1678
     10 N         144.3649  138.2245  155.7660 N.ar    1  UNL1       -0.2264
     11 N         144.0012  142.5772  158.5805 N.pl3   1  UNL1       -0.2897
     12 C         144.4411  142.4400  160.0080 C.3     1  UNL1        0.1242
     13 C         143.7647  143.2401  161.0815 C.3     1  UNL1        0.1636
     14 O         142.6484  144.1774  160.7275 O.3     1  UNL1       -0.3502
     15 C         142.2084  144.3146  159.3000 C.3     1  UNL1        0.1618
     16 C         142.8848  143.5145  158.2266 C.3     1  UNL1        0.1038
     17 C         142.4448  143.6517  156.7991 C.3     1  UNL1        0.0241
     18 N         147.6957  142.1292  154.9542 N.pl3   1  UNL1       -0.2747
     19 C         149.0800  141.6212  155.2290 C.3     1  UNL1        0.1256
     20 C         150.2509  142.1973  154.4893 C.3     1  UNL1        0.1637
     21 O         150.0374  143.2815  153.4749 O.3     1  UNL1       -0.3502
     22 C         148.6531  143.7895  153.2002 C.3     1  UNL1        0.1619
     23 C         147.4822  143.2134  153.9399 C.3     1  UNL1        0.1052
     24 C         146.0979  143.7214  153.6652 C.3     1  UNL1        0.0242
     25 C         141.7106  133.5196  155.5042 C.ar    1  UNL1        0.1370
     26 C         141.0069  134.7238  154.9521 C.ar    1  UNL1        0.0367
     27 C         141.5014  136.1000  155.2859 C.ar    1  UNL1        0.0046
     28 C         142.6995  136.2721  156.1718 C.ar    1  UNL1        0.0177
     29 C         143.4032  135.0679  156.7239 C.ar    1  UNL1        0.0027
     30 C         142.9087  133.6917  156.3901 C.ar    1  UNL1        0.0410
     31 C         143.6124  132.4875  156.9423 C.3     1  UNL1        0.1666
     32 O         142.8362  131.4393  157.6829 O.3     1  UNL1       -0.3771
     33 H         142.4886  131.8159  158.5064 H       1  UNL1        0.2109
     34 C         141.6221  131.4928  153.8812 C.3     1  UNL1        0.2525
     35 O         141.2161  132.1434  155.1704 O.3     1  UNL1       -0.4717
@<TRIPOS>BOND
     1    34    35    1
     2    35    25    1
     3    25    26   ar
     4    26    27   ar
     5    27    28   ar
     6    28     1    1
     7     1     2   ar
     8     2     3   ar
     9     3     4   ar
    10     4     5   ar
    11     5    11    1
    12    11    12    1
    13    12    13    1
    14    13    14    1
    15    14    15    1
    16    15    16    1
    17    16    17    1
    18     5     6   ar
    19     6     7   ar
    20     7    18    1
    21    18    19    1
    22    19    20    1
    23    20    21    1
    24    21    22    1
    25    22    23    1
    26    23    24    1
    27     7     8   ar
    28     8     9   ar
    29     9    10   ar
    30    28    29   ar
    31    29    30   ar
    32    30    31    1
    33    31    32    1
    34    30    25   ar
    35    10     1   ar
    36     9     4   ar
    37    16    11    1
    38    23    18    1
    39    32    33    1
@<TRIPOS>MOLECULE
*****
 35 39 0 0 0
SMALL
GASTEIGER

@<TRIPOS>ATOM
      1 C         141.2510  144.0496  159.6242 C.ar    1  UNL1        0.0829
      2 C         140.5213  142.8748  159.0436 C.ar    1  UNL1        0.0193
      3 C         139.6979  143.0428  157.8011 C.ar    1  UNL1        0.0074
      4 C         139.6043  144.3856  157.1393 C.ar    1  UNL1        0.0676
      5 C         138.7809  144.5536  155.8967 C.ar    1  UNL1        0.1376
      6 N         138.6872  145.8964  155.2349 N.ar    1  UNL1       -0.1986
      7 C         139.4170  147.0713  155.8156 C.ar    1  UNL1        0.2227
      8 N         140.2404  146.9033  157.0581 N.ar    1  UNL1       -0.1944
      9 C         140.3340  145.5604  157.7199 C.ar    1  UNL1        0.1678
     10 N         141.1574  145.3924  158.9624 N.ar    1  UNL1       -0.2264
     11 N         138.0511  143.3787  155.3161 N.pl3   1  UNL1       -0.2897
     12 C         136.6357  143.0979  155.7255 C.3     1  UNL1        0.1242
     13 C         135.9059  141.9230  155.1448 C.3     1  UNL1        0.1636
     14 O         136.5917  141.0290  154.1547 O.3     1  UNL1       -0.3502
     15 C         138.0071  141.3098  153.7452 C.3     1  UNL1        0.1618
     16 C         138.7368  142.4846  154.3259 C.3     1  UNL1        0.1038
     17 C         140.1523  142.7654  153.9164 C.3     1  UNL1        0.0241
     18 N         139.3234  148.4141  155.1538 N.pl3   1  UNL1       -0.2747
     19 C         139.8403  148.6000  153.7579 C.3     1  UNL1        0.1256
     20 C         139.7467  149.9428  153.0961 C.3     1  UNL1        0.1637
     21 O         139.1361  151.0998  153.8301 O.3     1  UNL1       -0.3502
     22 C         138.6192  150.9139  155.2259 C.3     1  UNL1        0.1619
     23 C         138.7129  149.5710  155.8877 C.3     1  UNL1        0.1052
     24 C         138.1960  149.3851  157.2835 C.3     1  UNL1        0.0242
     25 C         143.7212  143.5457  163.3518 C.ar    1  UNL1        0.1370
     26 C         142.6275  144.5714  163.3098 C.ar    1  UNL1        0.0367
     27 C         141.8041  144.7393  162.0673 C.ar    1  UNL1        0.0046
     28 C         142.0744  143.8816  160.8668 C.ar    1  UNL1        0.0177
     29 C         143.1681  142.8559  160.9087 C.ar    1  UNL1        0.0027
     30 C         143.9915  142.6879  162.1512 C.ar    1  UNL1        0.0410
     31 C         145.0852  141.6623  162.1932 C.3     1  UNL1        0.1666
     32 O         146.2810  141.8765  163.0730 O.3     1  UNL1       -0.3771
     33 H         146.7864  142.6396  162.7515 H       1  UNL1        0.2109
     34 C         143.8879  142.9698  165.8797 C.3     1  UNL1        0.2525
     35 O         144.5446  143.3777  164.5942 O.3     1  UNL1       -0.4717
@<TRIPOS>BOND
     1    34    35    1
     2    35    25    1
     3    25    26   ar
     4    26    27   ar
     5    27    28   ar
     6    28     1    1
     7     1     2   ar
     8     2     3   ar
     9     3     4   ar
    10     4     5   ar
    11     5    11    1
    12    11    12    1
    13    12    13    1
    14    13    14    1
    15    14    15    1
    16    15    16    1
    17    16    17    1
    18     5     6   ar
    19     6     7   ar
    20     7    18    1
    21    18    19    1
    22    19    20    1
    23    20    21    1
    24    21    22    1
    25    22    23    1
    26    23    24    1
    27     7     8   ar
    28     8     9   ar
    29     9    10   ar
    30    28    29   ar
    31    29    30   ar
    32    30    31    1
    33    31    32    1
    34    30    25   ar
    35    10     1   ar
    36     9     4   ar
    37    16    11    1
    38    23    18    1
    39    32    33    1
@<TRIPOS>MOLECULE
*****
 35 39 0 0 0
SMALL
GASTEIGER

@<TRIPOS>ATOM
      1 C         139.9677  139.5720  162.9078 C.ar    1  UNL1        0.0829
      2 C         140.2762  138.2965  162.1813 C.ar    1  UNL1        0.0193
      3 C         140.6437  138.3315  160.7275 C.ar    1  UNL1        0.0074
      4 C         140.7027  139.6420  160.0001 C.ar    1  UNL1        0.0676
      5 C         141.0703  139.6770  158.5462 C.ar    1  UNL1        0.1376
      6 N         141.1292  140.9875  157.8188 N.ar    1  UNL1       -0.1986
      7 C         140.8207  142.2631  158.5454 C.ar    1  UNL1        0.2227
      8 N         140.4532  142.2281  159.9992 N.ar    1  UNL1       -0.1944
      9 C         140.3942  140.9175  160.7266 C.ar    1  UNL1        0.1678
     10 N         140.0267  140.8825  162.1804 N.ar    1  UNL1       -0.2264
     11 N         141.3788  138.4014  157.8197 N.pl3   1  UNL1       -0.2897
     12 C         142.6328  137.6420  158.1372 C.3     1  UNL1        0.1242
     13 C         142.9413  136.3664  157.4106 C.3     1  UNL1        0.1636
     14 O         141.9958  135.8503  156.3667 O.3     1  UNL1       -0.3502
     15 C         140.7418  136.6098  156.0493 C.3     1  UNL1        0.1618
     16 C         140.4333  137.8853  156.7758 C.3     1  UNL1        0.1038
     17 C         139.1793  138.6448  156.4583 C.3     1  UNL1        0.0241
     18 N         140.8796  143.5736  157.8180 N.pl3   1  UNL1       -0.2747
     19 C         139.6229  144.1881  157.2767 C.3     1  UNL1        0.1256
     20 C         139.6818  145.4987  156.5494 C.3     1  UNL1        0.1637
     21 O         140.9976  146.1946  156.3633 O.3     1  UNL1       -0.3502
     22 C         142.2543  145.5801  156.9046 C.3     1  UNL1        0.1619
     23 C         142.1953  144.2695  157.6320 C.3     1  UNL1        0.1052
     24 C         143.4520  143.6550  158.1733 C.3     1  UNL1        0.0242
     25 C         138.8651  139.4671  167.2694 C.ar    1  UNL1        0.1370
     26 C         139.7493  140.5596  166.7454 C.ar    1  UNL1        0.0367
     27 C         140.1169  140.5946  165.2915 C.ar    1  UNL1        0.0046
     28 C         139.6002  139.5371  164.3617 C.ar    1  UNL1        0.0177
     29 C         138.7160  138.4445  164.8857 C.ar    1  UNL1        0.0027
     30 C         138.3484  138.4095  166.3395 C.ar    1  UNL1        0.0410
     31 C         137.4642  137.3170  166.8635 C.3     1  UNL1        0.1666
     32 O         136.6583  137.5370  168.1093 O.3     1  UNL1       -0.3771
     33 H         137.2555  137.6399  168.8667 H       1  UNL1        0.2109
     34 C         139.1540  140.3770  169.6857 C.3     1  UNL1        0.2525
     35 O         138.4976  139.4321  168.7232 O.3     1  UNL1       -0.4717
@<TRIPOS>BOND
     1    34    35    1
     2    35    25    1
     3    25    26   ar
     4    26    27   ar
     5    27    28   ar
     6    28     1    1
     7     1     2   ar
     8     2     3   ar
     9     3     4   ar
    10     4     5   ar
    11     5    11    1
    12    11    12    1
    13    12    13    1
    14    13    14    1
    15    14    15    1
    16    15    16    1
    17    16    17    1
    18     5     6   ar
    19     6     7   ar
    20     7    18    1
    21    18    19    1
    22    19    20    1
    23    20    21    1
    24    21    22    1
    25    22    23    1
    26    23    24    1
    27     7     8   ar
    28     8     9   ar
    29     9    10   ar
    30    28    29   ar
    31    29    30   ar
    32    30    31    1
    33    31    32    1
    34    30    25   ar
    35    10     1   ar
    36     9     4   ar
    37    16    11    1
    38    23    18    1
    39    32    33    1
@<TRIPOS>MOLECULE
*****
 35 39 0 0 0
SMALL
GASTEIGER

@<TRIPOS>ATOM
      1 C         142.3148  136.4863  156.6783 C.ar    1  UNL1        0.0829
      2 C         141.2685  137.4144  156.1363 C.ar    1  UNL1        0.0193
      3 C         140.9918  138.7173  156.8259 C.ar    1  UNL1        0.0074
      4 C         141.7614  139.0923  158.0576 C.ar    1  UNL1        0.0676
      5 C         141.4847  140.3953  158.7473 C.ar    1  UNL1        0.1376
      6 N         142.2543  140.7702  159.9789 N.ar    1  UNL1       -0.1986
      7 C         143.3007  139.8421  160.5210 C.ar    1  UNL1        0.2227
      8 N         143.5774  138.5392  159.8313 N.ar    1  UNL1       -0.1944
      9 C         142.8078  138.1642  158.5996 C.ar    1  UNL1        0.1678
     10 N         143.0845  136.8613  157.9100 N.ar    1  UNL1       -0.2264
     11 N         140.4383  141.3233  158.2052 N.pl3   1  UNL1       -0.2897
     12 C         140.8218  142.4014  157.2353 C.3     1  UNL1        0.1242
     13 C         139.7754  143.3295  156.6932 C.3     1  UNL1        0.1636
     14 O         138.3456  143.1794  157.1211 O.3     1  UNL1       -0.3502
     15 C         137.9621  142.1014  158.0910 C.3     1  UNL1        0.1618
     16 C         139.0085  141.1733  158.6331 C.3     1  UNL1        0.1038
     17 C         138.6250  140.0953  159.6030 C.3     1  UNL1        0.0241
     18 N         144.0704  140.2171  161.7527 N.pl3   1  UNL1       -0.2747
     19 C         144.1295  139.2726  162.9166 C.3     1  UNL1        0.1256
     20 C         144.8991  139.6476  164.1483 C.3     1  UNL1        0.1637
     21 O         145.6097  140.9669  164.2161 O.3     1  UNL1       -0.3502
     22 C         145.5505  141.9113  163.0522 C.3     1  UNL1        0.1619
     23 C         144.7809  141.5363  161.8205 C.3     1  UNL1        0.1052
     24 C         144.7218  142.4807  160.6566 C.3     1  UNL1        0.0242
     25 C         143.1451  132.5772  154.6094 C.ar    1  UNL1        0.1370
     26 C         142.1308  133.5255  154.0420 C.ar    1  UNL1        0.0367
     27 C         141.8541  134.8286  154.7316 C.ar    1  UNL1        0.0046
     28 C         142.5916  135.1833  155.9886 C.ar    1  UNL1        0.0177
     29 C         143.6059  134.2350  156.5561 C.ar    1  UNL1        0.0027
     30 C         143.8827  132.9320  155.8665 C.ar    1  UNL1        0.0410
     31 C         144.8969  131.9837  156.4340 C.3     1  UNL1        0.1666
     32 O         145.7387  132.3981  157.6043 O.3     1  UNL1       -0.3771
     33 H         146.3253  133.1240  157.3398 H       1  UNL1        0.2109
     34 C         143.2365  131.1568  152.4360 C.3     1  UNL1        0.2525
     35 O         143.4219  131.2742  153.9198 O.3     1  UNL1       -0.4717
@<TRIPOS>BOND
     1    34    35    1
     2    35    25    1
     3    25    26   ar
     4    26    27   ar
     5    27    28   ar
     6    28     1    1
     7     1     2   ar
     8     2     3   ar
     9     3     4   ar
    10     4     5   ar
    11     5    11    1
    12    11    12    1
    13    12    13    1
    14    13    14    1
    15    14    15    1
    16    15    16    1
    17    16    17    1
    18     5     6   ar
    19     6     7   ar
    20     7    18    1
    21    18    19    1
    22    19    20    1
    23    20    21    1
    24    21    22    1
    25    22    23    1
    26    23    24    1
    27     7     8   ar
    28     8     9   ar
    29     9    10   ar
    30    28    29   ar
    31    29    30   ar
    32    30    31    1
    33    31    32    1
    34    30    25   ar
    35    10     1   ar
    36     9     4   ar
    37    16    11    1
    38    23    18    1
    39    32    33    1
@<TRIPOS>MOLECULE
*****
 35 39 0 0 0
SMALL
GASTEIGER

@<TRIPOS>ATOM
      1 C         138.3856  142.2060  158.4153 C.ar    1  UNL1        0.0829
      2 C         139.5872  143.0934  158.5518 C.ar    1  UNL1        0.0193
      3 C         140.3961  143.0715  159.8148 C.ar    1  UNL1        0.0074
      4 C         140.0034  142.1622  160.9413 C.ar    1  UNL1        0.0676
      5 C         140.8124  142.1404  162.2043 C.ar    1  UNL1        0.1376
      6 N         140.4197  141.2311  163.3308 N.ar    1  UNL1       -0.1986
      7 C         139.2181  140.3436  163.1943 C.ar    1  UNL1        0.2227
      8 N         138.4092  140.3655  161.9313 N.ar    1  UNL1       -0.1944
      9 C         138.8018  141.2748  160.8048 C.ar    1  UNL1        0.1678
     10 N         137.9930  141.2967  159.5418 N.ar    1  UNL1       -0.2264
     11 N         142.0139  143.0278  162.3408 N.pl3   1  UNL1       -0.2897
     12 C         143.3445  142.5745  161.8172 C.3     1  UNL1        0.1242
     13 C         144.5461  143.4620  161.9538 C.3     1  UNL1        0.1636
     14 O         144.4171  144.8027  162.6138 O.3     1  UNL1       -0.3502
     15 C         143.0866  145.2561  163.1374 C.3     1  UNL1        0.1618
     16 C         141.8850  144.3686  163.0009 C.3     1  UNL1        0.1038
     17 C         140.5544  144.8220  163.5244 C.3     1  UNL1        0.0241
     18 N         138.8254  139.4343  164.3208 N.pl3   1  UNL1       -0.2747
     19 C         138.1630  139.9975  165.5431 C.3     1  UNL1        0.1256
     20 C         137.7703  139.0882  166.6696 C.3     1  UNL1        0.1637
     21 O         138.0401  137.6158  166.5738 O.3     1  UNL1       -0.3502
     22 C         138.7025  137.0526  165.3515 C.3     1  UNL1        0.1619
     23 C         139.0951  137.9619  164.2250 C.3     1  UNL1        0.1052
     24 C         139.7575  137.3988  163.0027 C.3     1  UNL1        0.0242
     25 C         135.9587  142.2714  154.6263 C.ar    1  UNL1        0.1370
     26 C         136.8655  143.4199  154.9561 C.ar    1  UNL1        0.0367
     27 C         137.6744  143.3981  156.2192 C.ar    1  UNL1        0.0046
     28 C         137.5767  142.2278  157.1523 C.ar    1  UNL1        0.0177
     29 C         136.6699  141.0793  156.8225 C.ar    1  UNL1        0.0027
     30 C         135.8610  141.1011  155.5595 C.ar    1  UNL1        0.0410
     31 C         134.9543  139.9526  155.2297 C.3     1  UNL1        0.1666
     32 O         133.4860  140.1884  155.0340 O.3     1  UNL1       -0.3771
     33 H         133.0895  140.4726  155.8724 H       1  UNL1        0.2109
     34 C         135.8292  142.4921  152.0409 C.3     1  UNL1        0.2525
     35 O         135.1498  142.2932  153.3634 O.3     1  UNL1       -0.4717
@<TRIPOS>BOND
     1    34    35    1
     2    35    25    1
     3    25    26   ar
     4    26    27   ar
     5    27    28   ar
     6    28     1    1
     7     1     2   ar
     8     2     3   ar
     9     3     4   ar
    10     4     5   ar
    11     5    11    1
    12    11    12    1
    13    12    13    1
    14    13    14    1
    15    14    15    1
    16    15    16    1
    17    16    17    1
    18     5     6   ar
    19     6     7   ar
    20     7    18    1
    21    18    19    1
    22    19    20    1
    23    20    21    1
    24    21    22    1
    25    22    23    1
    26    23    24    1
    27     7     8   ar
    28     8     9   ar
    29     9    10   ar
    30    28    29   ar
    31    29    30   ar
    32    30    31    1
    33    31    32    1
    34    30    25   ar
    35    10     1   ar
    36     9     4   ar
    37    16    11    1
    38    23    18    1
    39    32    33    1
@<TRIPOS>MOLECULE
*****
 35 39 0 0 0
SMALL
GASTEIGER

@<TRIPOS>ATOM
      1 C         139.6308  139.2344  161.7917 C.ar    1  UNL1        0.0829
      2 C         140.8198  138.5068  161.2378 C.ar    1  UNL1        0.0193
      3 C         141.0200  138.4177  159.7539 C.ar    1  UNL1        0.0074
      4 C         140.0312  139.0562  158.8240 C.ar    1  UNL1        0.0676
      5 C         140.2315  138.9671  157.3400 C.ar    1  UNL1        0.1376
      6 N         139.2428  139.6056  156.4101 N.ar    1  UNL1       -0.1986
      7 C         138.0538  140.3332  156.9642 C.ar    1  UNL1        0.2227
      8 N         137.8536  140.4223  158.4481 N.ar    1  UNL1       -0.1944
      9 C         138.8423  139.7838  159.3780 C.ar    1  UNL1        0.1678
     10 N         138.6421  139.8729  160.8618 N.ar    1  UNL1       -0.2264
     11 N         141.4204  138.2394  156.7861 N.pl3   1  UNL1       -0.2897
     12 C         141.3597  136.7558  156.5735 C.3     1  UNL1        0.1242
     13 C         142.5487  136.0282  156.0195 C.3     1  UNL1        0.1636
     14 O         143.7984  136.7842  155.6781 O.3     1  UNL1       -0.3502
     15 C         143.8592  138.2678  155.8906 C.3     1  UNL1        0.1618
     16 C         142.6702  138.9954  156.4446 C.3     1  UNL1        0.1038
     17 C         142.7310  140.4791  156.6571 C.3     1  UNL1        0.0241
     18 N         137.0650  140.9717  156.0343 N.pl3   1  UNL1       -0.2747
     19 C         135.7700  140.2801  155.7265 C.3     1  UNL1        0.1256
     20 C         134.7813  140.9186  154.7967 C.3     1  UNL1        0.1637
     21 O         135.0876  142.2488  154.1745 O.3     1  UNL1       -0.3502
     22 C         136.3825  142.9403  154.4823 C.3     1  UNL1        0.1619
     23 C         137.3713  142.3018  155.4122 C.3     1  UNL1        0.1052
     24 C         138.6662  142.9934  155.7199 C.3     1  UNL1        0.0242
     25 C         139.0300  139.5018  166.2435 C.ar    1  UNL1        0.1370
     26 C         139.6735  140.6371  165.5040 C.ar    1  UNL1        0.0367
     27 C         139.8738  140.5480  164.0201 C.ar    1  UNL1        0.0046
     28 C         139.4306  139.3235  163.2757 C.ar    1  UNL1        0.0177
     29 C         138.7871  138.1881  164.0152 C.ar    1  UNL1        0.0027
     30 C         138.5868  138.2772  165.4990 C.ar    1  UNL1        0.0410
     31 C         137.9433  137.1418  166.2385 C.3     1  UNL1        0.1666
     32 O         136.9200  137.4216  167.2988 O.3     1  UNL1       -0.3771
     33 H         137.3415  137.8810  168.0419 H       1  UNL1        0.2109
     34 C         139.8858  140.2151  168.5905 C.3     1  UNL1        0.2525
     35 O         138.8298  139.5908  167.7274 O.3     1  UNL1       -0.4717
@<TRIPOS>BOND
     1    34    35    1
     2    35    25    1
     3    25    26   ar
     4    26    27   ar
     5    27    28   ar
     6    28     1    1
     7     1     2   ar
     8     2     3   ar
     9     3     4   ar
    10     4     5   ar
    11     5    11    1
    12    11    12    1
    13    12    13    1
    14    13    14    1
    15    14    15    1
    16    15    16    1
    17    16    17    1
    18     5     6   ar
    19     6     7   ar
    20     7    18    1
    21    18    19    1
    22    19    20    1
    23    20    21    1
    24    21    22    1
    25    22    23    1
    26    23    24    1
    27     7     8   ar
    28     8     9   ar
    29     9    10   ar
    30    28    29   ar
    31    29    30   ar
    32    30    31    1
    33    31    32    1
    34    30    25   ar
    35    10     1   ar
    36     9     4   ar
    37    16    11    1
    38    23    18    1
    39    32    33    1
