@<TRIPOS>MOLECULE
*****
 21 22 0 0 0
SMALL
GASTEIGER

@<TRIPOS>ATOM
      1 C         141.5947  144.2573  163.6853 C.ar    1  UNL1        0.0266
      2 C         142.8595  144.9511  163.2744 C.ar    1  UNL1        0.0009
      3 C         144.1753  144.2393  163.3850 C.ar    1  UNL1        0.0113
      4 C         144.2262  142.8338  163.9064 C.ar    1  UNL1        0.0607
      5 CL        145.5420  142.1221  164.0169 Cl      1  UNL1       -0.0821
      6 C         142.9614  142.1401  164.3173 C.ar    1  UNL1        0.0486
      7 C         141.6456  142.8518  164.2067 C.ar    1  UNL1        0.1433
      8 C         140.2790  144.9690  163.5748 C.3     1  UNL1        0.0799
      9 C         139.8723  145.5958  162.2742 C.3     1  UNL1        0.0221
     10 C         137.9885  144.4733  164.6964 C.3     1  UNL1        0.0861
     11 N         139.3699  145.0539  164.7649 N.3     1  UNL1       -0.2939
     12 H         139.8482  144.5860  165.5347 H       1  UNL1        0.1235
     13 O         140.3808  142.1579  164.6177 O.3     1  UNL1       -0.4538
     14 C         140.1938  141.7196  166.0399 C.ar    1  UNL1        0.1450
     15 C         139.6547  140.3520  166.3386 C.ar    1  UNL1        0.0371
     16 C         139.4677  139.9137  167.7608 C.ar    1  UNL1       -0.0014
     17 C         139.8199  140.8428  168.8845 C.ar    1  UNL1       -0.0256
     18 C         139.6330  140.4045  170.3067 C.3     1  UNL1        0.0307
     19 C         140.3591  142.2103  168.5859 C.ar    1  UNL1       -0.0228
     20 C         140.7113  143.1395  169.7096 C.3     1  UNL1        0.0308
     21 C         140.5460  142.6488  167.1636 C.ar    1  UNL1        0.0329
@<TRIPOS>BOND
     1    10    11    1
     2    11     8    1
     3     8     9    1
     4     8     1    1
     5     1     2   ar
     6     2     3   ar
     7     3     4   ar
     8     4     5    1
     9     4     6   ar
    10     6     7   ar
    11     7    13    1
    12    13    14    1
    13    14    15   ar
    14    15    16   ar
    15    16    17   ar
    16    17    18    1
    17    17    19   ar
    18    19    20    1
    19    19    21   ar
    20     7     1   ar
    21    21    14   ar
    22    11    12    1
@<TRIPOS>MOLECULE
*****
 21 22 0 0 0
SMALL
GASTEIGER

@<TRIPOS>ATOM
      1 C         139.7331  139.2058  164.4803 C.ar    1  UNL1        0.0266
      2 C         139.8452  137.8149  163.9301 C.ar    1  UNL1        0.0009
      3 C         141.0778  137.4012  163.1822 C.ar    1  UNL1        0.0113
      4 C         142.1984  138.3785  162.9843 C.ar    1  UNL1        0.0607
      5 CL        143.4311  137.9648  162.2363 Cl      1  UNL1       -0.0821
      6 C         142.0864  139.7694  163.5345 C.ar    1  UNL1        0.0486
      7 C         140.8537  140.1831  164.2824 C.ar    1  UNL1        0.1433
      8 C         138.5005  139.6195  165.2283 C.3     1  UNL1        0.0799
      9 C         138.0604  138.8453  166.4352 C.3     1  UNL1        0.0221
     10 C         137.4757  141.0336  163.3047 C.3     1  UNL1        0.0861
     11 N         137.7079  140.8074  164.7692 N.3     1  UNL1       -0.2939
     12 H         136.7887  140.7344  165.2053 H       1  UNL1        0.1235
     13 O         140.7417  141.5741  164.8326 O.3     1  UNL1       -0.4538
     14 C         141.2953  141.8905  166.1903 C.ar    1  UNL1        0.1450
     15 C         142.7772  142.0189  166.3847 C.ar    1  UNL1        0.0371
     16 C         143.3308  142.3353  167.7424 C.ar    1  UNL1       -0.0014
     17 C         142.4027  142.5233  168.9057 C.ar    1  UNL1       -0.0256
     18 C         142.9563  142.8397  170.2634 C.3     1  UNL1        0.0307
     19 C         140.9209  142.3949  168.7113 C.ar    1  UNL1       -0.0228
     20 C         139.9927  142.5830  169.8745 C.3     1  UNL1        0.0308
     21 C         140.3672  142.0785  167.3535 C.ar    1  UNL1        0.0329
@<TRIPOS>BOND
     1    10    11    1
     2    11     8    1
     3     8     9    1
     4     8     1    1
     5     1     2   ar
     6     2     3   ar
     7     3     4   ar
     8     4     5    1
     9     4     6   ar
    10     6     7   ar
    11     7    13    1
    12    13    14    1
    13    14    15   ar
    14    15    16   ar
    15    16    17   ar
    16    17    18    1
    17    17    19   ar
    18    19    20    1
    19    19    21   ar
    20     7     1   ar
    21    21    14   ar
    22    11    12    1
@<TRIPOS>MOLECULE
*****
 21 22 0 0 0
SMALL
GASTEIGER

@<TRIPOS>ATOM
      1 C         140.4383  140.4279  167.1663 C.ar    1  UNL1        0.0266
      2 C         139.5812  139.9451  168.2986 C.ar    1  UNL1        0.0009
      3 C         139.3485  140.8247  169.4911 C.ar    1  UNL1        0.0113
      4 C         139.9729  142.1872  169.5513 C.ar    1  UNL1        0.0607
      5 CL        139.7402  143.0668  170.7438 Cl      1  UNL1       -0.0821
      6 C         140.8300  142.6700  168.4190 C.ar    1  UNL1        0.0486
      7 C         141.0627  141.7904  167.2265 C.ar    1  UNL1        0.1433
      8 C         140.6710  139.5482  165.9738 C.3     1  UNL1        0.0799
      9 C         139.5051  138.9457  165.2473 C.3     1  UNL1        0.0221
     10 C         143.1151  138.8350  166.4908 C.3     1  UNL1        0.0861
     11 N         142.0695  139.2711  165.5077 N.3     1  UNL1       -0.2939
     12 H         142.0047  138.5375  164.8020 H       1  UNL1        0.1235
     13 O         141.9199  142.2733  166.0941 O.3     1  UNL1       -0.4538
     14 C         141.3536  143.2156  165.0737 C.ar    1  UNL1        0.1450
     15 C         142.2637  144.1373  164.3173 C.ar    1  UNL1        0.0371
     16 C         141.6974  145.0796  163.2969 C.ar    1  UNL1       -0.0014
     17 C         140.2209  145.1002  163.0328 C.ar    1  UNL1       -0.0256
     18 C         139.6546  146.0425  162.0124 C.3     1  UNL1        0.0307
     19 C         139.3108  144.1786  163.7892 C.ar    1  UNL1       -0.0228
     20 C         137.8344  144.1992  163.5252 C.3     1  UNL1        0.0308
     21 C         139.8771  143.2362  164.8097 C.ar    1  UNL1        0.0329
@<TRIPOS>BOND
     1    10    11    1
     2    11     8    1
     3     8     9    1
     4     8     1    1
     5     1     2   ar
     6     2     3   ar
     7     3     4   ar
     8     4     5    1
     9     4     6   ar
    10     6     7   ar
    11     7    13    1
    12    13    14    1
    13    14    15   ar
    14    15    16   ar
    15    16    17   ar
    16    17    18    1
    17    17    19   ar
    18    19    20    1
    19    19    21   ar
    20     7     1   ar
    21    21    14   ar
    22    11    12    1
@<TRIPOS>MOLECULE
*****
 21 22 0 0 0
SMALL
GASTEIGER

@<TRIPOS>ATOM
      1 C         138.9489  143.0729  164.1809 C.ar    1  UNL1        0.0266
      2 C         137.6477  142.7533  163.5065 C.ar    1  UNL1        0.0009
      3 C         137.3795  141.3617  163.0152 C.ar    1  UNL1        0.0113
      4 C         138.4124  140.2896  163.1983 C.ar    1  UNL1        0.0607
      5 CL        138.1441  138.8979  162.7071 Cl      1  UNL1       -0.0821
      6 C         139.7135  140.6091  163.8727 C.ar    1  UNL1        0.0486
      7 C         139.9818  142.0007  164.3640 C.ar    1  UNL1        0.1433
      8 C         139.2171  144.4645  164.6721 C.3     1  UNL1        0.0799
      9 C         138.3701  145.0514  165.7621 C.3     1  UNL1        0.0221
     10 C         140.4771  145.3578  162.5830 C.3     1  UNL1        0.0861
     11 N         140.3324  145.2693  164.0734 N.3     1  UNL1       -0.2939
     12 H         140.2234  146.2239  164.4158 H       1  UNL1        0.1235
     13 O         141.2830  142.3202  165.0384 O.3     1  UNL1       -0.4538
     14 C         141.4744  141.9969  166.4906 C.ar    1  UNL1        0.1450
     15 C         142.4056  140.8933  166.8969 C.ar    1  UNL1        0.0371
     16 C         142.5970  140.5700  168.3490 C.ar    1  UNL1       -0.0014
     17 C         141.8571  141.3501  169.3949 C.ar    1  UNL1       -0.0256
     18 C         142.0484  141.0268  170.8471 C.3     1  UNL1        0.0307
     19 C         140.9258  142.4536  168.9887 C.ar    1  UNL1       -0.0228
     20 C         140.1859  143.2337  170.0346 C.3     1  UNL1        0.0308
     21 C         140.7345  142.7770  167.5365 C.ar    1  UNL1        0.0329
@<TRIPOS>BOND
     1    10    11    1
     2    11     8    1
     3     8     9    1
     4     8     1    1
     5     1     2   ar
     6     2     3   ar
     7     3     4   ar
     8     4     5    1
     9     4     6   ar
    10     6     7   ar
    11     7    13    1
    12    13    14    1
    13    14    15   ar
    14    15    16   ar
    15    16    17   ar
    16    17    18    1
    17    17    19   ar
    18    19    20    1
    19    19    21   ar
    20     7     1   ar
    21    21    14   ar
    22    11    12    1
@<TRIPOS>MOLECULE
*****
 21 22 0 0 0
SMALL
GASTEIGER

@<TRIPOS>ATOM
      1 C         139.6092  139.9413  167.5962 C.ar    1  UNL1        0.0266
      2 C         138.3307  139.2003  167.3393 C.ar    1  UNL1        0.0009
      3 C         138.1600  138.4158  166.0722 C.ar    1  UNL1        0.0113
      4 C         139.2679  138.3725  165.0620 C.ar    1  UNL1        0.0607
      5 CL        139.0972  137.5881  163.7948 Cl      1  UNL1       -0.0821
      6 C         140.5465  139.1135  165.3188 C.ar    1  UNL1        0.0486
      7 C         140.7171  139.8979  166.5860 C.ar    1  UNL1        0.1433
      8 C         139.7799  140.7257  168.8633 C.3     1  UNL1        0.0799
      9 C         138.9151  140.4277  170.0521 C.3     1  UNL1        0.0221
     10 C         140.4043  143.2190  169.2422 C.3     1  UNL1        0.0861
     11 N         140.8154  141.8081  168.9416 N.3     1  UNL1       -0.2939
     12 H         141.4751  141.5323  169.6690 H       1  UNL1        0.1235
     13 O         141.9958  140.6390  166.8428 O.3     1  UNL1       -0.4538
     14 C         142.4071  141.7615  165.9369 C.ar    1  UNL1        0.1450
     15 C         143.8472  141.9235  165.5495 C.ar    1  UNL1        0.0371
     16 C         144.2585  143.0459  164.6436 C.ar    1  UNL1       -0.0014
     17 C         143.2297  144.0065  164.1249 C.ar    1  UNL1       -0.0256
     18 C         143.6410  145.1290  163.2189 C.3     1  UNL1        0.0307
     19 C         141.7897  143.8446  164.5122 C.ar    1  UNL1       -0.0228
     20 C         140.7610  144.8051  163.9935 C.3     1  UNL1        0.0308
     21 C         141.3784  142.7220  165.4182 C.ar    1  UNL1        0.0329
@<TRIPOS>BOND
     1    10    11    1
     2    11     8    1
     3     8     9    1
     4     8     1    1
     5     1     2   ar
     6     2     3   ar
     7     3     4   ar
     8     4     5    1
     9     4     6   ar
    10     6     7   ar
    11     7    13    1
    12    13    14    1
    13    14    15   ar
    14    15    16   ar
    15    16    17   ar
    16    17    18    1
    17    17    19   ar
    18    19    20    1
    19    19    21   ar
    20     7     1   ar
    21    21    14   ar
    22    11    12    1
@<TRIPOS>MOLECULE
*****
 21 22 0 0 0
SMALL
GASTEIGER

@<TRIPOS>ATOM
      1 C         139.4103  139.8142  167.7906 C.ar    1  UNL1        0.0266
      2 C         138.8455  139.9913  169.1689 C.ar    1  UNL1        0.0009
      3 C         139.7360  140.4286  170.2939 C.ar    1  UNL1        0.0113
      4 C         141.1913  140.6890  170.0407 C.ar    1  UNL1        0.0607
      5 CL        142.0819  141.1264  171.1657 Cl      1  UNL1       -0.0821
      6 C         141.7562  140.5119  168.6624 C.ar    1  UNL1        0.0486
      7 C         140.8657  140.0745  167.5374 C.ar    1  UNL1        0.1433
      8 C         138.5198  139.3768  166.6656 C.3     1  UNL1        0.0799
      9 C         137.6668  138.1523  166.8169 C.3     1  UNL1        0.0221
     10 C         138.5402  139.4547  164.0688 C.3     1  UNL1        0.0861
     11 N         138.4823  140.1639  165.3893 N.3     1  UNL1       -0.2939
     12 H         137.6137  140.6986  165.3985 H       1  UNL1        0.1235
     13 O         141.4306  139.8974  166.1591 O.3     1  UNL1       -0.4538
     14 C         142.0776  141.0556  165.4593 C.ar    1  UNL1        0.1450
     15 C         141.3186  142.3353  165.2677 C.ar    1  UNL1        0.0371
     16 C         141.9656  143.4935  164.5679 C.ar    1  UNL1       -0.0014
     17 C         143.3717  143.3721  164.0595 C.ar    1  UNL1       -0.0256
     18 C         144.0187  144.5304  163.3597 C.3     1  UNL1        0.0307
     19 C         144.1306  142.0926  164.2510 C.ar    1  UNL1       -0.0228
     20 C         145.5367  141.9713  163.7427 C.3     1  UNL1        0.0308
     21 C         143.4836  140.9343  164.9509 C.ar    1  UNL1        0.0329
@<TRIPOS>BOND
     1    10    11    1
     2    11     8    1
     3     8     9    1
     4     8     1    1
     5     1     2   ar
     6     2     3   ar
     7     3     4   ar
     8     4     5    1
     9     4     6   ar
    10     6     7   ar
    11     7    13    1
    12    13    14    1
    13    14    15   ar
    14    15    16   ar
    15    16    17   ar
    16    17    18    1
    17    17    19   ar
    18    19    20    1
    19    19    21   ar
    20     7     1   ar
    21    21    14   ar
    22    11    12    1
@<TRIPOS>MOLECULE
*****
 21 22 0 0 0
SMALL
GASTEIGER

@<TRIPOS>ATOM
      1 C         141.5978  140.3081  166.7359 C.ar    1  UNL1        0.0266
      2 C         142.6275  139.2216  166.6406 C.ar    1  UNL1        0.0009
      3 C         142.4890  138.1458  165.6045 C.ar    1  UNL1        0.0113
      4 C         141.3208  138.1564  164.6638 C.ar    1  UNL1        0.0607
      5 CL        141.1822  137.0806  163.6277 Cl      1  UNL1       -0.0821
      6 C         140.2910  139.2429  164.7591 C.ar    1  UNL1        0.0486
      7 C         140.4295  140.3188  165.7951 C.ar    1  UNL1        0.1433
      8 C         141.7363  141.3839  167.7719 C.3     1  UNL1        0.0799
      9 C         142.9815  142.2186  167.8245 C.3     1  UNL1        0.0221
     10 C         139.9381  140.4638  169.4059 C.3     1  UNL1        0.0861
     11 N         140.6297  141.6251  168.7553 N.3     1  UNL1       -0.2939
     12 H         141.0218  142.1928  169.5065 H       1  UNL1        0.1235
     13 O         139.3997  141.4053  165.8904 O.3     1  UNL1       -0.4538
     14 C         139.4454  142.5671  164.9428 C.ar    1  UNL1        0.1450
     15 C         138.2318  142.9268  164.1380 C.ar    1  UNL1        0.0371
     16 C         138.2775  144.0886  163.1904 C.ar    1  UNL1       -0.0014
     17 C         139.5368  144.8909  163.0476 C.ar    1  UNL1       -0.0256
     18 C         139.5825  146.0528  162.1000 C.3     1  UNL1        0.0307
     19 C         140.7505  144.5313  163.8524 C.ar    1  UNL1       -0.0228
     20 C         142.0098  145.3336  163.7096 C.3     1  UNL1        0.0308
     21 C         140.7048  143.3694  164.8000 C.ar    1  UNL1        0.0329
@<TRIPOS>BOND
     1    10    11    1
     2    11     8    1
     3     8     9    1
     4     8     1    1
     5     1     2   ar
     6     2     3   ar
     7     3     4   ar
     8     4     5    1
     9     4     6   ar
    10     6     7   ar
    11     7    13    1
    12    13    14    1
    13    14    15   ar
    14    15    16   ar
    15    16    17   ar
    16    17    18    1
    17    17    19   ar
    18    19    20    1
    19    19    21   ar
    20     7     1   ar
    21    21    14   ar
    22    11    12    1
@<TRIPOS>MOLECULE
*****
 21 22 0 0 0
SMALL
GASTEIGER

@<TRIPOS>ATOM
      1 C         141.1875  140.1507  166.8553 C.ar    1  UNL1        0.0266
      2 C         142.3020  139.9080  167.8294 C.ar    1  UNL1        0.0009
      3 C         142.6052  140.9239  168.8905 C.ar    1  UNL1        0.0113
      4 C         141.7939  142.1825  168.9776 C.ar    1  UNL1        0.0607
      5 CL        142.0972  143.1984  170.0387 Cl      1  UNL1       -0.0821
      6 C         140.6794  142.4252  168.0035 C.ar    1  UNL1        0.0486
      7 C         140.3762  141.4093  166.9424 C.ar    1  UNL1        0.1433
      8 C         140.8842  139.1348  165.7942 C.3     1  UNL1        0.0799
      9 C         142.0036  138.4859  165.0354 C.3     1  UNL1        0.0221
     10 C         139.0580  138.4223  164.0891 C.3     1  UNL1        0.0861
     11 N         139.4616  138.7679  165.4918 N.3     1  UNL1       -0.2939
     12 H         139.2369  137.9586  166.0707 H       1  UNL1        0.1235
     13 O         139.2616  141.6521  165.9683 O.3     1  UNL1       -0.4538
     14 C         139.3605  142.7765  164.9804 C.ar    1  UNL1        0.1450
     15 C         138.1403  143.2288  164.2342 C.ar    1  UNL1        0.0371
     16 C         138.2392  144.3532  163.2464 C.ar    1  UNL1       -0.0014
     17 C         139.5582  145.0254  163.0047 C.ar    1  UNL1       -0.0256
     18 C         139.6571  146.1498  162.0168 C.3     1  UNL1        0.0307
     19 C         140.7783  144.5732  163.7508 C.ar    1  UNL1       -0.0228
     20 C         142.0973  145.2453  163.5091 C.3     1  UNL1        0.0308
     21 C         140.6795  143.4487  164.7387 C.ar    1  UNL1        0.0329
@<TRIPOS>BOND
     1    10    11    1
     2    11     8    1
     3     8     9    1
     4     8     1    1
     5     1     2   ar
     6     2     3   ar
     7     3     4   ar
     8     4     5    1
     9     4     6   ar
    10     6     7   ar
    11     7    13    1
    12    13    14    1
    13    14    15   ar
    14    15    16   ar
    15    16    17   ar
    16    17    18    1
    17    17    19   ar
    18    19    20    1
    19    19    21   ar
    20     7     1   ar
    21    21    14   ar
    22    11    12    1
@<TRIPOS>MOLECULE
*****
 21 22 0 0 0
SMALL
GASTEIGER

@<TRIPOS>ATOM
      1 C         141.5304  144.3088  163.6724 C.ar    1  UNL1        0.0266
      2 C         142.7507  145.0513  164.1298 C.ar    1  UNL1        0.0009
      3 C         144.0689  144.3417  164.2245 C.ar    1  UNL1        0.0113
      4 C         144.1666  142.8895  163.8617 C.ar    1  UNL1        0.0607
      5 CL        145.4847  142.1799  163.9564 Cl      1  UNL1       -0.0821
      6 C         142.9462  142.1470  163.4043 C.ar    1  UNL1        0.0486
      7 C         141.6281  142.8567  163.3096 C.ar    1  UNL1        0.1433
      8 C         140.2122  145.0185  163.5777 C.3     1  UNL1        0.0799
      9 C         139.1512  144.7705  164.6086 C.3     1  UNL1        0.0221
     10 C         140.2761  145.5793  161.0417 C.3     1  UNL1        0.0861
     11 N         139.9552  145.9761  162.4522 N.3     1  UNL1       -0.2939
     12 H         138.9600  146.1985  162.4763 H       1  UNL1        0.1235
     13 O         140.4076  142.1141  162.8521 O.3     1  UNL1       -0.4538
     14 C         139.8848  140.9620  163.6579 C.ar    1  UNL1        0.1450
     15 C         138.6518  141.1307  164.4953 C.ar    1  UNL1        0.0371
     16 C         138.1290  139.9785  165.3010 C.ar    1  UNL1       -0.0014
     17 C         138.8391  138.6577  165.2693 C.ar    1  UNL1       -0.0256
     18 C         138.3163  137.5055  166.0750 C.3     1  UNL1        0.0307
     19 C         140.0721  138.4889  164.4319 C.ar    1  UNL1       -0.0228
     20 C         140.7822  137.1681  164.4002 C.3     1  UNL1        0.0308
     21 C         140.5950  139.6411  163.6262 C.ar    1  UNL1        0.0329
@<TRIPOS>BOND
     1    10    11    1
     2    11     8    1
     3     8     9    1
     4     8     1    1
     5     1     2   ar
     6     2     3   ar
     7     3     4   ar
     8     4     5    1
     9     4     6   ar
    10     6     7   ar
    11     7    13    1
    12    13    14    1
    13    14    15   ar
    14    15    16   ar
    15    16    17   ar
    16    17    18    1
    17    17    19   ar
    18    19    20    1
    19    19    21   ar
    20     7     1   ar
    21    21    14   ar
    22    11    12    1
