@<TRIPOS>MOLECULE
*****
 31 33 0 0 0
SMALL
GASTEIGER

@<TRIPOS>ATOM
      1 C         139.9191  141.2727  166.1885 C.3     1  UNL1        0.0750
      2 C         140.0560  142.7663  166.1704 C.3     1  UNL1        0.0412
      3 C         139.5180  143.5548  165.0134 C.3     1  UNL1        0.0984
      4 N         138.8431  142.8497  163.8744 N.am    1  UNL1       -0.2459
      5 C         138.3050  143.6383  162.7173 C.2     1  UNL1        0.4052
      6 O         137.6301  142.9331  161.5783 O.2     1  UNL1       -0.2262
      7 C         138.7062  141.3561  163.8924 C.3     1  UNL1        0.0984
      8 C         139.2442  140.5676  165.0495 C.3     1  UNL1        0.0412
      9 O         142.8239  140.5279  166.2748 O.2     1  UNL1       -0.2751
     10 C         141.9095  140.1118  167.3887 C.2     1  UNL1        0.2224
     11 N         140.4571  140.4842  167.3455 N.am    1  UNL1       -0.3058
     12 H         139.8570  140.2111  168.0766 H       1  UNL1        0.1494
     13 C         142.4475  139.3232  168.5458 C.3     1  UNL1        0.0854
     14 C         142.0644  139.6928  169.9481 C.3     1  UNL1        0.0159
     15 C         142.3936  141.0557  170.4810 C.3     1  UNL1        0.0474
     16 C         141.3261  142.1062  170.5648 C.ar    1  UNL1        0.0740
     17 C         141.3178  143.4153  169.8326 C.ar    1  UNL1        0.1378
     18 N         140.0661  144.1501  170.2109 N.ar    1  UNL1       -0.1277
     19 N         139.3007  143.2952  171.1770 N.ar    1  UNL1       -0.0675
     20 N         140.0794  142.0320  171.3957 N.ar    1  UNL1       -0.2605
     21 H         139.8182  141.2853  171.9817 H       1  UNL1        0.1903
     22 O         138.4419  145.1319  162.6992 O.3     1  UNL1       -0.4295
     23 C         139.5973  145.7706  161.9870 C.3     1  UNL1        0.2368
     24 C         140.9641  145.1590  162.0761 C.ar    1  UNL1        0.0230
     25 C         141.4808  144.3105  160.9523 C.ar    1  UNL1        0.0108
     26 C         142.8475  143.6989  161.0414 C.ar    1  UNL1        0.0583
     27 CL        143.3642  142.8503  159.9176 Cl      1  UNL1       -0.0822
     28 C         143.6976  143.9358  162.2544 C.ar    1  UNL1        0.0228
     29 C         143.1809  144.7844  163.3782 C.ar    1  UNL1        0.0583
     30 CL        144.0309  145.0214  164.5912 Cl      1  UNL1       -0.0822
     31 C         141.8141  145.3960  163.2891 C.ar    1  UNL1        0.0108
@<TRIPOS>BOND
     1     9    10    2
     2    10    13    1
     3    13    14    1
     4    14    15    1
     5    15    16    1
     6    16    17   ar
     7    17    18   ar
     8    18    19   ar
     9    19    20   ar
    10    10    11   am
    11    11     1    1
    12     1     2    1
    13     2     3    1
    14     3     4    1
    15     4     5   am
    16     5     6    2
    17     5    22    1
    18    22    23    1
    19    23    24    1
    20    24    25   ar
    21    25    26   ar
    22    26    27    1
    23    26    28   ar
    24    28    29   ar
    25    29    30    1
    26    29    31   ar
    27     4     7    1
    28     7     8    1
    29    20    16   ar
    30     8     1    1
    31    31    24   ar
    32    20    21    1
    33    11    12    1
@<TRIPOS>MOLECULE
*****
 31 33 0 0 0
SMALL
GASTEIGER

@<TRIPOS>ATOM
      1 C         141.9830  139.6727  166.6591 C.3     1  UNL1        0.0750
      2 C         140.4960  139.4939  166.5777 C.3     1  UNL1        0.0412
      3 C         139.8824  138.8561  165.3666 C.3     1  UNL1        0.0984
      4 N         140.7560  138.3971  164.2369 N.am    1  UNL1       -0.2459
      5 C         140.1424  137.7593  163.0258 C.2     1  UNL1        0.4052
      6 O         141.0159  137.3003  161.8961 O.2     1  UNL1       -0.2262
      7 C         142.2430  138.5759  164.3183 C.3     1  UNL1        0.0984
      8 C         142.8565  139.2136  165.5294 C.3     1  UNL1        0.0412
      9 O         142.6485  142.5979  166.6393 O.2     1  UNL1       -0.2751
     10 C         142.9293  141.7731  167.8603 C.2     1  UNL1        0.2224
     11 N         142.5966  140.3105  167.8702 N.am    1  UNL1       -0.3058
     12 H         142.7809  139.7691  168.6716 H       1  UNL1        0.1494
     13 C         143.5429  142.4109  169.0714 C.3     1  UNL1        0.0854
     14 C         142.7731  142.4737  170.3573 C.3     1  UNL1        0.0159
     15 C         141.2825  142.6390  170.3316 C.3     1  UNL1        0.0474
     16 C         140.3923  141.4463  170.5192 C.ar    1  UNL1        0.0740
     17 C         139.1485  141.1428  169.7376 C.ar    1  UNL1        0.1378
     18 N         138.5772  139.8567  170.2567 N.ar    1  UNL1       -0.1277
     19 N         139.4678  139.3654  171.3592 N.ar    1  UNL1       -0.0675
     20 N         140.5896  140.3478  171.5214 N.ar    1  UNL1       -0.2605
     21 H         141.3261  140.2831  172.1715 H       1  UNL1        0.1903
     22 O         138.6553  137.5805  162.9444 O.3     1  UNL1       -0.4295
     23 C         137.8584  138.3698  161.9483 C.3     1  UNL1        0.2368
     24 C         137.9477  139.8670  161.9336 C.ar    1  UNL1        0.0230
     25 C         138.2936  140.5853  160.6631 C.ar    1  UNL1        0.0108
     26 C         138.3829  142.0826  160.6485 C.ar    1  UNL1        0.0583
     27 CL        138.7288  142.8009  159.3779 Cl      1  UNL1       -0.0822
     28 C         138.1263  142.8615  161.9045 C.ar    1  UNL1        0.0228
     29 C         137.7804  142.1432  163.1750 C.ar    1  UNL1        0.0583
     30 CL        137.5238  142.9221  164.4310 Cl      1  UNL1       -0.0822
     31 C         137.6911  140.6459  163.1896 C.ar    1  UNL1        0.0108
@<TRIPOS>BOND
     1     9    10    2
     2    10    13    1
     3    13    14    1
     4    14    15    1
     5    15    16    1
     6    16    17   ar
     7    17    18   ar
     8    18    19   ar
     9    19    20   ar
    10    10    11   am
    11    11     1    1
    12     1     2    1
    13     2     3    1
    14     3     4    1
    15     4     5   am
    16     5     6    2
    17     5    22    1
    18    22    23    1
    19    23    24    1
    20    24    25   ar
    21    25    26   ar
    22    26    27    1
    23    26    28   ar
    24    28    29   ar
    25    29    30    1
    26    29    31   ar
    27     4     7    1
    28     7     8    1
    29    20    16   ar
    30     8     1    1
    31    31    24   ar
    32    20    21    1
    33    11    12    1
@<TRIPOS>MOLECULE
*****
 31 33 0 0 0
SMALL
GASTEIGER

@<TRIPOS>ATOM
      1 C         141.5146  139.2718  166.1048 C.3     1  UNL1        0.0750
      2 C         140.0209  139.2038  165.9854 C.3     1  UNL1        0.0412
      3 C         139.3902  138.7957  164.6871 C.3     1  UNL1        0.0984
      4 N         140.2531  138.4556  163.5083 N.am    1  UNL1       -0.2459
      5 C         139.6223  138.0475  162.2099 C.2     1  UNL1        0.4052
      6 O         140.4852  137.7073  161.0311 O.2     1  UNL1       -0.2262
      7 C         141.7468  138.5235  163.6277 C.3     1  UNL1        0.0984
      8 C         142.3775  138.9316  164.9260 C.3     1  UNL1        0.0412
      9 O         142.0226  142.1721  166.6794 O.2     1  UNL1       -0.2751
     10 C         142.3993  141.1301  167.6904 C.2     1  UNL1        0.2224
     11 N         142.1454  139.6799  167.4032 N.am    1  UNL1       -0.3058
     12 H         142.3927  138.9960  168.0667 H       1  UNL1        0.1494
     13 C         143.0301  141.5382  168.9888 C.3     1  UNL1        0.0854
     14 C         142.5612  142.7762  169.6939 C.3     1  UNL1        0.0159
     15 C         141.1691  142.8417  170.2485 C.3     1  UNL1        0.0474
     16 C         140.3895  141.5793  170.4691 C.ar    1  UNL1        0.0740
     17 C         139.2134  141.1166  169.6612 C.ar    1  UNL1        0.1378
     18 N         138.7462  139.8093  170.2292 N.ar    1  UNL1       -0.1277
     19 N         139.6336  139.4640  171.3883 N.ar    1  UNL1       -0.0675
     20 N         140.6491  140.5579  171.5366 N.ar    1  UNL1       -0.2605
     21 H         141.3611  140.5984  172.2153 H       1  UNL1        0.1903
     22 O         138.1286  137.9795  162.0905 O.3     1  UNL1       -0.4295
     23 C         137.3788  139.0904  161.4169 C.3     1  UNL1        0.2368
     24 C         137.7908  140.5156  161.6384 C.ar    1  UNL1        0.0230
     25 C         137.4708  141.1957  162.9365 C.ar    1  UNL1        0.0108
     26 C         137.8829  142.6208  163.1580 C.ar    1  UNL1        0.0583
     27 CL        137.5629  143.3009  164.4561 Cl      1  UNL1       -0.0822
     28 C         138.6149  143.3660  162.0814 C.ar    1  UNL1        0.0228
     29 C         138.9349  142.6858  160.7833 C.ar    1  UNL1        0.0583
     30 CL        139.6669  143.4309  159.7068 Cl      1  UNL1       -0.0822
     31 C         138.5228  141.2606  160.5618 C.ar    1  UNL1        0.0108
@<TRIPOS>BOND
     1     9    10    2
     2    10    13    1
     3    13    14    1
     4    14    15    1
     5    15    16    1
     6    16    17   ar
     7    17    18   ar
     8    18    19   ar
     9    19    20   ar
    10    10    11   am
    11    11     1    1
    12     1     2    1
    13     2     3    1
    14     3     4    1
    15     4     5   am
    16     5     6    2
    17     5    22    1
    18    22    23    1
    19    23    24    1
    20    24    25   ar
    21    25    26   ar
    22    26    27    1
    23    26    28   ar
    24    28    29   ar
    25    29    30    1
    26    29    31   ar
    27     4     7    1
    28     7     8    1
    29    20    16   ar
    30     8     1    1
    31    31    24   ar
    32    20    21    1
    33    11    12    1
@<TRIPOS>MOLECULE
*****
 31 33 0 0 0
SMALL
GASTEIGER

@<TRIPOS>ATOM
      1 C         142.7273  141.7877  166.3867 C.3     1  UNL1        0.0750
      2 C         142.8736  140.3005  166.2572 C.3     1  UNL1        0.0412
      3 C         143.2536  139.6965  164.9378 C.3     1  UNL1        0.0984
      4 N         143.4873  140.5796  163.7481 N.am    1  UNL1       -0.2459
      5 C         143.8674  139.9755  162.4287 C.2     1  UNL1        0.4052
      6 O         144.1011  140.8586  161.2390 O.2     1  UNL1       -0.2262
      7 C         143.3410  142.0668  163.8777 C.3     1  UNL1        0.0984
      8 C         142.9610  142.6708  165.1970 C.3     1  UNL1        0.0412
      9 O         139.8646  142.4888  166.9466 O.2     1  UNL1       -0.2751
     10 C         140.9159  142.7424  167.9860 C.2     1  UNL1        0.2224
     11 N         142.3472  142.3918  167.7061 N.am    1  UNL1       -0.3058
     12 H         143.0372  142.5583  168.3883 H       1  UNL1        0.1494
     13 C         140.5358  143.3465  169.3054 C.3     1  UNL1        0.0854
     14 C         139.8632  142.5055  170.3494 C.3     1  UNL1        0.0159
     15 C         139.9296  141.0094  170.2644 C.3     1  UNL1        0.0474
     16 C         141.2566  140.3128  170.3263 C.ar    1  UNL1        0.0740
     17 C         141.7387  139.2488  169.3852 C.ar    1  UNL1        0.1378
     18 N         143.1145  138.8363  169.8174 N.ar    1  UNL1       -0.1277
     19 N         143.4829  139.6454  171.0257 N.ar    1  UNL1       -0.0675
     20 N         142.3346  140.5578  171.3402 N.ar    1  UNL1       -0.2605
     21 H         142.2954  141.2041  172.0818 H       1  UNL1        0.1903
     22 O         144.0137  138.4883  162.2991 O.3     1  UNL1       -0.4295
     23 C         142.9360  137.6836  161.6349 C.3     1  UNL1        0.2368
     24 C         141.4977  137.9191  161.9896 C.ar    1  UNL1        0.0230
     25 C         140.5715  138.5454  160.9897 C.ar    1  UNL1        0.0108
     26 C         139.1332  138.7809  161.3443 C.ar    1  UNL1        0.0583
     27 CL        138.2070  139.4072  160.3444 Cl      1  UNL1       -0.0822
     28 C         138.6211  138.3900  162.6990 C.ar    1  UNL1        0.0228
     29 C         139.5473  137.7636  163.6989 C.ar    1  UNL1        0.0583
     30 CL        139.0352  137.3727  165.0535 Cl      1  UNL1       -0.0822
     31 C         140.9856  137.5282  163.3442 C.ar    1  UNL1        0.0108
@<TRIPOS>BOND
     1     9    10    2
     2    10    13    1
     3    13    14    1
     4    14    15    1
     5    15    16    1
     6    16    17   ar
     7    17    18   ar
     8    18    19   ar
     9    19    20   ar
    10    10    11   am
    11    11     1    1
    12     1     2    1
    13     2     3    1
    14     3     4    1
    15     4     5   am
    16     5     6    2
    17     5    22    1
    18    22    23    1
    19    23    24    1
    20    24    25   ar
    21    25    26   ar
    22    26    27    1
    23    26    28   ar
    24    28    29   ar
    25    29    30    1
    26    29    31   ar
    27     4     7    1
    28     7     8    1
    29    20    16   ar
    30     8     1    1
    31    31    24   ar
    32    20    21    1
    33    11    12    1
@<TRIPOS>MOLECULE
*****
 31 33 0 0 0
SMALL
GASTEIGER

@<TRIPOS>ATOM
      1 C         142.9933  138.9467  162.6063 C.3     1  UNL1        0.0750
      2 C         143.7868  137.9849  161.7725 C.3     1  UNL1        0.0412
      3 C         143.4178  137.7555  160.3368 C.3     1  UNL1        0.0984
      4 N         142.2554  138.4880  159.7349 N.am    1  UNL1       -0.2459
      5 C         141.8864  138.2585  158.2992 C.2     1  UNL1        0.4052
      6 O         140.7240  138.9910  157.6973 O.2     1  UNL1       -0.2262
      7 C         141.4619  139.4498  160.5687 C.3     1  UNL1        0.0984
      8 C         141.8309  139.6792  162.0044 C.3     1  UNL1        0.0412
      9 O         141.5622  137.4541  164.7798 O.2     1  UNL1       -0.2751
     10 C         142.6467  138.4299  165.1287 C.2     1  UNL1        0.2224
     11 N         143.3623  139.1761  164.0420 N.am    1  UNL1       -0.3058
     12 H         144.0741  139.8165  164.2710 H       1  UNL1        0.1494
     13 C         143.0157  138.6593  166.5645 C.3     1  UNL1        0.0854
     14 C         142.6305  139.9407  167.2423 C.3     1  UNL1        0.0159
     15 C         142.5040  139.9904  168.7361 C.3     1  UNL1        0.0474
     16 C         141.1538  139.8716  169.3788 C.ar    1  UNL1        0.0740
     17 C         139.8374  140.1762  168.7275 C.ar    1  UNL1        0.1378
     18 N         138.7531  139.9202  169.7318 N.ar    1  UNL1       -0.1277
     19 N         139.3993  139.4573  171.0039 N.ar    1  UNL1       -0.0675
     20 N         140.8831  139.4273  170.7857 N.ar    1  UNL1       -0.2605
     21 H         141.5603  139.1625  171.4494 H       1  UNL1        0.1903
     22 O         142.6798  137.2967  157.4654 O.3     1  UNL1       -0.4295
     23 C         141.9749  136.2654  156.6349 C.3     1  UNL1        0.2368
     24 C         142.6428  134.9551  156.3405 C.ar    1  UNL1        0.0230
     25 C         143.5675  134.3412  157.3494 C.ar    1  UNL1        0.0108
     26 C         144.2355  133.0308  157.0550 C.ar    1  UNL1        0.0583
     27 CL        145.1602  132.4169  158.0640 Cl      1  UNL1       -0.0822
     28 C         143.9787  132.3342  155.7515 C.ar    1  UNL1        0.0228
     29 C         143.0540  132.9481  154.7426 C.ar    1  UNL1        0.0583
     30 CL        142.7972  132.2517  153.4391 Cl      1  UNL1       -0.0822
     31 C         142.3860  134.2586  155.0371 C.ar    1  UNL1        0.0108
@<TRIPOS>BOND
     1     9    10    2
     2    10    13    1
     3    13    14    1
     4    14    15    1
     5    15    16    1
     6    16    17   ar
     7    17    18   ar
     8    18    19   ar
     9    19    20   ar
    10    10    11   am
    11    11     1    1
    12     1     2    1
    13     2     3    1
    14     3     4    1
    15     4     5   am
    16     5     6    2
    17     5    22    1
    18    22    23    1
    19    23    24    1
    20    24    25   ar
    21    25    26   ar
    22    26    27    1
    23    26    28   ar
    24    28    29   ar
    25    29    30    1
    26    29    31   ar
    27     4     7    1
    28     7     8    1
    29    20    16   ar
    30     8     1    1
    31    31    24   ar
    32    20    21    1
    33    11    12    1
@<TRIPOS>MOLECULE
*****
 31 33 0 0 0
SMALL
GASTEIGER

@<TRIPOS>ATOM
      1 C         141.0187  140.0382  166.2773 C.3     1  UNL1        0.0750
      2 C         139.6784  139.7670  165.6610 C.3     1  UNL1        0.0412
      3 C         139.5262  139.7619  164.1688 C.3     1  UNL1        0.0984
      4 N         140.7145  140.0281  163.2928 N.am    1  UNL1       -0.2459
      5 C         140.5623  140.0230  161.8005 C.2     1  UNL1        0.4052
      6 O         141.7505  140.2891  160.9245 O.2     1  UNL1       -0.2262
      7 C         142.0548  140.2993  163.9091 C.3     1  UNL1        0.0984
      8 C         142.2070  140.3044  165.4013 C.3     1  UNL1        0.0412
      9 O         143.3080  138.5812  167.5566 O.2     1  UNL1       -0.2751
     10 C         142.3155  139.3148  168.4092 C.2     1  UNL1        0.2224
     11 N         141.1709  140.0433  167.7696 N.am    1  UNL1       -0.3058
     12 H         140.5196  140.5248  168.3292 H       1  UNL1        0.1494
     13 C         142.4677  139.3199  169.9015 C.3     1  UNL1        0.0854
     14 C         143.2074  140.4369  170.5761 C.3     1  UNL1        0.0159
     15 C         142.9542  141.8580  170.1684 C.3     1  UNL1        0.0474
     16 C         141.6353  142.5029  170.4761 C.ar    1  UNL1        0.0740
     17 C         141.0785  143.7297  169.8165 C.ar    1  UNL1        0.1378
     18 N         139.7408  144.0192  170.4302 N.ar    1  UNL1       -0.1277
     19 N         139.4707  142.9713  171.4691 N.ar    1  UNL1       -0.0675
     20 N         140.6416  142.0342  171.4974 N.ar    1  UNL1       -0.2605
     21 H         140.7406  141.2494  172.0834 H       1  UNL1        0.1903
     22 O         139.2219  139.7518  161.1842 O.3     1  UNL1       -0.4295
     23 C         138.2896  140.8885  160.8862 C.3     1  UNL1        0.2368
     24 C         138.5341  142.2380  161.4935 C.ar    1  UNL1        0.0230
     25 C         137.9247  142.5855  162.8193 C.ar    1  UNL1        0.0108
     26 C         138.1693  143.9350  163.4266 C.ar    1  UNL1        0.0583
     27 CL        137.5598  144.2825  164.7524 Cl      1  UNL1       -0.0822
     28 C         139.0233  144.9372  162.7080 C.ar    1  UNL1        0.0228
     29 C         139.6328  144.5898  161.3821 C.ar    1  UNL1        0.0583
     30 CL        140.4868  145.5919  160.6636 Cl      1  UNL1       -0.0822
     31 C         139.3881  143.2401  160.7749 C.ar    1  UNL1        0.0108
@<TRIPOS>BOND
     1     9    10    2
     2    10    13    1
     3    13    14    1
     4    14    15    1
     5    15    16    1
     6    16    17   ar
     7    17    18   ar
     8    18    19   ar
     9    19    20   ar
    10    10    11   am
    11    11     1    1
    12     1     2    1
    13     2     3    1
    14     3     4    1
    15     4     5   am
    16     5     6    2
    17     5    22    1
    18    22    23    1
    19    23    24    1
    20    24    25   ar
    21    25    26   ar
    22    26    27    1
    23    26    28   ar
    24    28    29   ar
    25    29    30    1
    26    29    31   ar
    27     4     7    1
    28     7     8    1
    29    20    16   ar
    30     8     1    1
    31    31    24   ar
    32    20    21    1
    33    11    12    1
@<TRIPOS>MOLECULE
*****
 31 33 0 0 0
SMALL
GASTEIGER

@<TRIPOS>ATOM
      1 C         141.4817  137.7701  162.8499 C.3     1  UNL1        0.0750
      2 C         142.2588  138.3658  163.9861 C.3     1  UNL1        0.0412
      3 C         141.5430  138.8478  165.2130 C.3     1  UNL1        0.0984
      4 N         140.0501  138.7340  165.3036 N.am    1  UNL1       -0.2459
      5 C         139.3343  139.2161  166.5306 C.2     1  UNL1        0.4052
      6 O         137.8414  139.1024  166.6212 O.2     1  UNL1       -0.2262
      7 C         139.2729  138.1383  164.1674 C.3     1  UNL1        0.0984
      8 C         139.9887  137.6564  162.9405 C.3     1  UNL1        0.0412
      9 O         141.4996  139.4519  160.3657 O.2     1  UNL1       -0.2751
     10 C         142.2064  138.1290  160.3808 C.2     1  UNL1        0.2224
     11 N         142.1974  137.2880  161.6229 N.am    1  UNL1       -0.3058
     12 H         142.6613  136.4198  161.6328 H       1  UNL1        0.1494
     13 C         142.9222  137.6469  159.1539 C.3     1  UNL1        0.0854
     14 C         142.2002  137.5838  157.8406 C.3     1  UNL1        0.0159
     15 C         142.7780  136.7931  156.7044 C.3     1  UNL1        0.0474
     16 C         142.5997  135.3044  156.6596 C.ar    1  UNL1        0.0740
     17 C         143.3477  134.3015  157.4870 C.ar    1  UNL1        0.1378
     18 N         142.8524  132.9345  157.1183 N.ar    1  UNL1       -0.1277
     19 N         141.7982  133.0925  156.0629 N.ar    1  UNL1       -0.0675
     20 N         141.6421  134.5572  155.7794 N.ar    1  UNL1       -0.2605
     21 H         141.0202  134.9578  155.1297 H       1  UNL1        0.1903
     22 O         140.1115  139.8118  167.6669 O.3     1  UNL1       -0.4295
     23 C         140.1929  141.3017  167.8201 C.3     1  UNL1        0.2368
     24 C         140.7810  142.1376  166.7222 C.ar    1  UNL1        0.0230
     25 C         139.8934  143.0148  165.8899 C.ar    1  UNL1        0.0108
     26 C         140.4815  143.8506  164.7920 C.ar    1  UNL1        0.0583
     27 CL        139.5939  144.7278  163.9597 Cl      1  UNL1       -0.0822
     28 C         141.9573  143.8094  164.5264 C.ar    1  UNL1        0.0228
     29 C         142.8449  142.9322  165.3587 C.ar    1  UNL1        0.0583
     30 CL        144.3206  142.8909  165.0932 Cl      1  UNL1       -0.0822
     31 C         142.2567  142.0963  166.4567 C.ar    1  UNL1        0.0108
@<TRIPOS>BOND
     1     9    10    2
     2    10    13    1
     3    13    14    1
     4    14    15    1
     5    15    16    1
     6    16    17   ar
     7    17    18   ar
     8    18    19   ar
     9    19    20   ar
    10    10    11   am
    11    11     1    1
    12     1     2    1
    13     2     3    1
    14     3     4    1
    15     4     5   am
    16     5     6    2
    17     5    22    1
    18    22    23    1
    19    23    24    1
    20    24    25   ar
    21    25    26   ar
    22    26    27    1
    23    26    28   ar
    24    28    29   ar
    25    29    30    1
    26    29    31   ar
    27     4     7    1
    28     7     8    1
    29    20    16   ar
    30     8     1    1
    31    31    24   ar
    32    20    21    1
    33    11    12    1
@<TRIPOS>MOLECULE
*****
 31 33 0 0 0
SMALL
GASTEIGER

@<TRIPOS>ATOM
      1 C         142.5518  139.4228  165.3656 C.3     1  UNL1        0.0750
      2 C         141.3195  139.9296  164.6769 C.3     1  UNL1        0.0412
      3 C         141.3643  140.2763  163.2182 C.3     1  UNL1        0.0984
      4 N         142.6416  140.1161  162.4482 N.am    1  UNL1       -0.2459
      5 C         142.6864  140.4628  160.9895 C.2     1  UNL1        0.4052
      6 O         143.9637  140.3026  160.2195 O.2     1  UNL1       -0.2262
      7 C         143.8740  139.6093  163.1369 C.3     1  UNL1        0.0984
      8 C         143.8291  139.2626  164.5955 C.3     1  UNL1        0.0412
      9 O         142.8914  141.5733  167.4296 O.2     1  UNL1       -0.2751
     10 C         142.6768  140.1513  167.8563 C.2     1  UNL1        0.2224
     11 N         142.5070  139.0761  166.8243 N.am    1  UNL1       -0.3058
     12 H         142.3662  138.1429  167.1044 H       1  UNL1        0.1494
     13 C         142.6320  139.8047  169.3151 C.3     1  UNL1        0.0854
     14 C         141.3152  139.5400  169.9829 C.3     1  UNL1        0.0159
     15 C         140.0934  140.2999  169.5594 C.3     1  UNL1        0.0474
     16 C         140.0236  141.7839  169.7671 C.ar    1  UNL1        0.0740
     17 C         139.5724  142.4789  171.0174 C.ar    1  UNL1        0.1378
     18 N         139.6627  143.9579  170.7840 N.ar    1  UNL1       -0.1277
     19 N         140.1697  144.1769  169.3893 N.ar    1  UNL1       -0.0675
     20 N         140.3928  142.8333  168.7609 N.ar    1  UNL1       -0.2605
     21 H         140.7234  142.6690  167.8483 H       1  UNL1        0.1903
     22 O         141.4540  140.9696  160.3008 O.3     1  UNL1       -0.4295
     23 C         141.2108  142.4456  160.1886 C.3     1  UNL1        0.2368
     24 C         141.2055  143.3006  161.4210 C.ar    1  UNL1        0.0230
     25 C         142.4870  143.8913  161.9296 C.ar    1  UNL1        0.0108
     26 C         142.4817  144.7464  163.1619 C.ar    1  UNL1        0.0583
     27 CL        143.7633  145.3371  163.6705 Cl      1  UNL1       -0.0822
     28 C         141.1947  145.0107  163.8858 C.ar    1  UNL1        0.0228
     29 C         139.9132  144.4200  163.3773 C.ar    1  UNL1        0.0583
     30 CL        138.6263  144.6843  164.1011 Cl      1  UNL1       -0.0822
     31 C         139.9186  143.5649  162.1448 C.ar    1  UNL1        0.0108
@<TRIPOS>BOND
     1     9    10    2
     2    10    13    1
     3    13    14    1
     4    14    15    1
     5    15    16    1
     6    16    17   ar
     7    17    18   ar
     8    18    19   ar
     9    19    20   ar
    10    10    11   am
    11    11     1    1
    12     1     2    1
    13     2     3    1
    14     3     4    1
    15     4     5   am
    16     5     6    2
    17     5    22    1
    18    22    23    1
    19    23    24    1
    20    24    25   ar
    21    25    26   ar
    22    26    27    1
    23    26    28   ar
    24    28    29   ar
    25    29    30    1
    26    29    31   ar
    27     4     7    1
    28     7     8    1
    29    20    16   ar
    30     8     1    1
    31    31    24   ar
    32    20    21    1
    33    11    12    1
@<TRIPOS>MOLECULE
*****
 31 33 0 0 0
SMALL
GASTEIGER

@<TRIPOS>ATOM
      1 C         140.2564  141.0122  165.2820 C.3     1  UNL1        0.0750
      2 C         140.3944  142.5006  165.4075 C.3     1  UNL1        0.0412
      3 C         139.7856  143.4001  164.3730 C.3     1  UNL1        0.0984
      4 N         139.0388  142.8112  163.2130 N.am    1  UNL1       -0.2459
      5 C         138.4300  143.7108  162.1785 C.2     1  UNL1        0.4052
      6 O         137.6832  143.1219  161.0185 O.2     1  UNL1       -0.2262
      7 C         138.9008  141.3229  163.0875 C.3     1  UNL1        0.0984
      8 C         139.5096  140.4234  164.1220 C.3     1  UNL1        0.0412
      9 O         143.1950  140.4131  165.2067 O.2     1  UNL1       -0.2751
     10 C         142.3345  139.8131  166.2789 C.2     1  UNL1        0.2224
     11 N         140.8652  140.1127  166.3165 N.am    1  UNL1       -0.3058
     12 H         140.3004  139.7189  167.0202 H       1  UNL1        0.1494
     13 C         142.9433  138.9135  167.3134 C.3     1  UNL1        0.0854
     14 C         142.6882  139.1653  168.7699 C.3     1  UNL1        0.0159
     15 C         142.7932  140.5567  169.3201 C.3     1  UNL1        0.0474
     16 C         141.6344  141.1617  170.0559 C.ar    1  UNL1        0.0740
     17 C         141.7033  141.8812  171.3703 C.ar    1  UNL1        0.1378
     18 N         140.3148  142.3176  171.7331 N.ar    1  UNL1       -0.1277
     19 N         139.3877  141.8679  170.6429 N.ar    1  UNL1       -0.0675
     20 N         140.2033  141.1535  169.6064 N.ar    1  UNL1       -0.2605
     21 H         139.8597  140.7501  168.7767 H       1  UNL1        0.1903
     22 O         138.5679  145.1991  162.3040 O.3     1  UNL1       -0.4295
     23 C         139.7944  145.8855  161.7799 C.3     1  UNL1        0.2368
     24 C         140.6808  145.1865  160.7921 C.ar    1  UNL1        0.0230
     25 C         140.3947  145.2901  159.3232 C.ar    1  UNL1        0.0108
     26 C         141.2810  144.5911  158.3354 C.ar    1  UNL1        0.0583
     27 CL        140.9950  144.6946  156.8666 Cl      1  UNL1       -0.0822
     28 C         142.4535  143.7885  158.8164 C.ar    1  UNL1        0.0228
     29 C         142.7396  143.6850  160.2852 C.ar    1  UNL1        0.0583
     30 CL        143.9120  142.8825  160.7663 Cl      1  UNL1       -0.0822
     31 C         141.8532  144.3840  161.2731 C.ar    1  UNL1        0.0108
@<TRIPOS>BOND
     1     9    10    2
     2    10    13    1
     3    13    14    1
     4    14    15    1
     5    15    16    1
     6    16    17   ar
     7    17    18   ar
     8    18    19   ar
     9    19    20   ar
    10    10    11   am
    11    11     1    1
    12     1     2    1
    13     2     3    1
    14     3     4    1
    15     4     5   am
    16     5     6    2
    17     5    22    1
    18    22    23    1
    19    23    24    1
    20    24    25   ar
    21    25    26   ar
    22    26    27    1
    23    26    28   ar
    24    28    29   ar
    25    29    30    1
    26    29    31   ar
    27     4     7    1
    28     7     8    1
    29    20    16   ar
    30     8     1    1
    31    31    24   ar
    32    20    21    1
    33    11    12    1
