@<TRIPOS>MOLECULE
*****
 41 46 0 0 0
SMALL
GASTEIGER

@<TRIPOS>ATOM
      1 C         143.2459  143.2958  164.5302 C.3     1  UNL1        0.0546
      2 C         144.0940  142.3424  165.3187 C.3     1  UNL1        0.0180
      3 C         143.2099  141.6476  166.3114 C.3     1  UNL1        0.0310
      4 C         143.1876  140.6290  167.4123 C.3     1  UNL1        0.0948
      5 N         141.7792  140.5234  167.9177 N.am    1  UNL1       -0.2690
      6 C         141.3027  139.6226  169.0184 C.2     1  UNL1        0.2923
      7 O         139.8566  139.6260  169.4172 O.2     1  UNL1       -0.2604
      8 C         140.9311  141.4768  167.1292 C.3     1  UNL1        0.1029
      9 C         141.8152  142.1716  166.1365 C.3     1  UNL1        0.0902
     10 C         141.8376  143.1902  165.0356 C.3     1  UNL1        0.0261
     11 C         140.4207  142.6956  165.9615 C.2     1  UNL1        0.2267
     12 O         139.8344  143.6236  166.9837 O.2     1  UNL1       -0.2748
     13 N         139.6124  142.2915  164.7641 N.am    1  UNL1       -0.2750
     14 C         138.2179  142.8155  164.5891 C.3     1  UNL1        0.1000
     15 C         137.4096  142.4114  163.3919 C.3     1  UNL1        0.0670
     16 C         137.9960  141.4834  162.3696 C.ar    1  UNL1        0.0583
     17 N         137.1877  141.0793  161.1723 N.ar    1  UNL1       -0.2484
     18 C         137.7740  140.1513  160.1501 C.ar    1  UNL1        0.1023
     19 C         139.1686  139.6273  160.3252 C.ar    1  UNL1        0.0902
     20 C         139.9768  140.0314  161.5224 C.ar    1  UNL1        0.0040
     21 C         139.3905  140.9594  162.5447 C.ar    1  UNL1        0.0113
     22 C         140.1987  141.3635  163.7419 C.3     1  UNL1        0.1213
     23 C         139.7549  138.6993  159.3029 C.3     1  UNL1        0.4200
     24 F         140.3413  137.7712  158.2807 F       1  UNL1       -0.1658
     25 F         140.6155  138.0764  160.3619 F       1  UNL1       -0.1658
     26 F         138.8943  139.3221  158.2439 F       1  UNL1       -0.1658
     27 N         143.7225  144.1966  163.4295 N.3     1  UNL1       -0.2975
     28 H         143.2492  145.0914  163.5556 H       1  UNL1        0.1232
     29 C         142.2990  144.2496  161.2568 C.3     1  UNL1        0.1591
     30 C         142.1003  143.8528  159.8239 C.3     1  UNL1        0.1729
     31 O         143.1264  143.0062  159.1309 O.3     1  UNL1       -0.3511
     32 C         144.3513  142.5563  159.8708 C.3     1  UNL1        0.1437
     33 C         144.5500  142.9531  161.3037 C.3     1  UNL1        0.0503
     34 C         143.5238  143.7998  161.9966 C.3     1  UNL1        0.0865
     35 C         139.8139  144.7849  161.7932 C.3     1  UNL1        0.1742
     36 O         141.2729  145.0963  161.9497 O.3     1  UNL1       -0.3496
     37 C         142.2721  138.7185  169.7203 C.1     1  UNL1       -0.0072
     38 C         143.2416  137.8143  170.4221 C.1     1  UNL1       -0.0831
     39 C         144.2110  136.9101  171.1240 C.3     1  UNL1        0.0646
     40 C         144.6784  135.5287  171.4750 C.3     1  UNL1        0.0140
     41 C         145.4227  136.7254  171.9887 C.3     1  UNL1        0.0140
@<TRIPOS>BOND
     1    35    36    1
     2    36    29    1
     3    29    30    1
     4    30    31    1
     5    31    32    1
     6    32    33    1
     7    33    34    1
     8    34    27    1
     9     1    27    1
    10     1     2    1
    11     3     2    1
    12     3     4    1
    13     4     5    1
    14     5     6   am
    15     6     7    2
    16     6    37    1
    17    37    38    3
    18    38    39    1
    19    39    40    1
    20    40    41    1
    21     5     8    1
    22     8     9    1
    23     9    11    1
    24    11    12    2
    25    11    13   am
    26    13    14    1
    27    14    15    1
    28    15    16    1
    29    16    17   ar
    30    17    18   ar
    31    18    19   ar
    32    19    23    1
    33    23    24    1
    34    23    25    1
    35    23    26    1
    36    19    20   ar
    37    20    21   ar
    38    21    22    1
    39     9    10    1
    40    34    29    1
    41    10     1    1
    42     9     3    1
    43    22    13    1
    44    41    39    1
    45    21    16   ar
    46    27    28    1
@<TRIPOS>MOLECULE
*****
 41 46 0 0 0
SMALL
GASTEIGER

@<TRIPOS>ATOM
      1 C         139.5208  140.4353  158.9313 C.3     1  UNL1        0.0546
      2 C         139.3383  139.0434  158.4030 C.3     1  UNL1        0.0180
      3 C         140.6052  138.6417  157.7075 C.3     1  UNL1        0.0310
      4 C         141.2753  137.5332  156.9512 C.3     1  UNL1        0.0948
      5 N         142.6551  137.9919  156.5822 N.am    1  UNL1       -0.2690
      6 C         143.6734  137.1979  155.8189 C.2     1  UNL1        0.2923
      7 O         145.0188  137.7914  155.5226 O.2     1  UNL1       -0.2604
      8 C         142.8376  139.3838  157.1106 C.3     1  UNL1        0.1029
      9 C         141.5707  139.7855  157.8060 C.3     1  UNL1        0.0902
     10 C         140.9006  140.8939  158.5624 C.3     1  UNL1        0.0261
     11 C         142.5362  140.9292  157.9046 C.2     1  UNL1        0.2267
     12 O         142.7302  141.8497  156.7363 O.2     1  UNL1       -0.2748
     13 N         143.3078  141.1523  159.1715 N.am    1  UNL1       -0.2750
     14 C         144.2733  142.2960  159.2700 C.3     1  UNL1        0.1000
     15 C         145.0448  142.5192  160.5368 C.3     1  UNL1        0.0670
     16 C         144.8508  141.5986  161.7052 C.ar    1  UNL1        0.0583
     17 N         145.6224  141.8218  162.9720 N.ar    1  UNL1       -0.2484
     18 C         145.4284  140.9012  164.1404 C.ar    1  UNL1        0.1023
     19 C         144.4629  139.7575  164.0418 C.ar    1  UNL1        0.0902
     20 C         143.6914  139.5344  162.7749 C.ar    1  UNL1        0.0040
     21 C         143.8853  140.4549  161.6066 C.ar    1  UNL1        0.0113
     22 C         143.1138  140.2318  160.3398 C.3     1  UNL1        0.1213
     23 C         144.2689  138.8369  165.2101 C.3     1  UNL1        0.4200
     24 F         144.0749  137.9164  166.3784 F       1  UNL1       -0.1658
     25 F         142.7830  139.0108  165.1004 F       1  UNL1       -0.1658
     26 F         145.7547  138.6631  165.3198 F       1  UNL1       -0.1658
     27 N         138.5025  141.2293  159.6946 N.3     1  UNL1       -0.2975
     28 H         138.7713  142.2098  159.6120 H       1  UNL1        0.1232
     29 C         138.0426  142.1028  162.0979 C.3     1  UNL1        0.1591
     30 C         137.8234  141.8354  163.5575 C.3     1  UNL1        0.1729
     31 O         137.8450  140.4271  164.0735 O.3     1  UNL1       -0.3511
     32 C         138.0857  139.2862  163.1298 C.3     1  UNL1        0.1437
     33 C         138.3048  139.5536  161.6702 C.3     1  UNL1        0.0503
     34 C         138.2833  140.9619  161.1543 C.3     1  UNL1        0.0865
     35 C         138.6554  144.6118  162.3794 C.3     1  UNL1        0.1742
     36 O         138.0210  143.5110  161.5819 O.3     1  UNL1       -0.3496
     37 C         143.3464  135.8104  155.3520 C.1     1  UNL1       -0.0072
     38 C         143.0195  134.4230  154.8850 C.1     1  UNL1       -0.0831
     39 C         142.6925  133.0355  154.4180 C.3     1  UNL1        0.0646
     40 C         142.9518  131.8798  153.4978 C.3     1  UNL1        0.0140
     41 C         141.8668  131.7882  154.5294 C.3     1  UNL1        0.0140
@<TRIPOS>BOND
     1    35    36    1
     2    36    29    1
     3    29    30    1
     4    30    31    1
     5    31    32    1
     6    32    33    1
     7    33    34    1
     8    34    27    1
     9     1    27    1
    10     1     2    1
    11     3     2    1
    12     3     4    1
    13     4     5    1
    14     5     6   am
    15     6     7    2
    16     6    37    1
    17    37    38    3
    18    38    39    1
    19    39    40    1
    20    40    41    1
    21     5     8    1
    22     8     9    1
    23     9    11    1
    24    11    12    2
    25    11    13   am
    26    13    14    1
    27    14    15    1
    28    15    16    1
    29    16    17   ar
    30    17    18   ar
    31    18    19   ar
    32    19    23    1
    33    23    24    1
    34    23    25    1
    35    23    26    1
    36    19    20   ar
    37    20    21   ar
    38    21    22    1
    39     9    10    1
    40    34    29    1
    41    10     1    1
    42     9     3    1
    43    22    13    1
    44    41    39    1
    45    21    16   ar
    46    27    28    1
@<TRIPOS>MOLECULE
*****
 41 46 0 0 0
SMALL
GASTEIGER

@<TRIPOS>ATOM
      1 C         143.5202  139.3956  164.5466 C.3     1  UNL1        0.0546
      2 C         142.5300  138.6169  165.3608 C.3     1  UNL1        0.0180
      3 C         141.8609  139.5667  166.3095 C.3     1  UNL1        0.0310
      4 C         140.8353  139.6725  167.3991 C.3     1  UNL1        0.0948
      5 N         140.7782  141.1037  167.8446 N.am    1  UNL1       -0.2690
      6 C         139.8872  141.6586  168.9162 C.2     1  UNL1        0.2923
      7 O         139.9412  143.1189  169.2546 O.2     1  UNL1       -0.2604
      8 C         141.7685  141.8824  167.0304 C.3     1  UNL1        0.1029
      9 C         142.4376  140.9326  166.0817 C.3     1  UNL1        0.0902
     10 C         143.4631  140.8268  164.9922 C.3     1  UNL1        0.0261
     11 C         143.0143  142.2984  165.8538 C.2     1  UNL1        0.2267
     12 O         143.9802  142.8793  166.8435 O.2     1  UNL1       -0.2748
     13 N         142.6251  143.0833  164.6362 N.am    1  UNL1       -0.2750
     14 C         143.2019  144.4491  164.4083 C.3     1  UNL1        0.1000
     15 C         142.8127  145.2339  163.1908 C.3     1  UNL1        0.0670
     16 C         141.8468  144.6529  162.2011 C.ar    1  UNL1        0.0583
     17 N         141.4576  145.4379  160.9834 N.ar    1  UNL1       -0.2484
     18 C         140.4917  144.8569  159.9937 C.ar    1  UNL1        0.1023
     19 C         139.9150  143.4910  160.2216 C.ar    1  UNL1        0.0902
     20 C         140.3042  142.7062  161.4392 C.ar    1  UNL1        0.0040
     21 C         141.2701  143.2872  162.4289 C.ar    1  UNL1        0.0113
     22 C         141.6592  142.5023  163.6465 C.3     1  UNL1        0.1213
     23 C         138.9491  142.9101  159.2319 C.3     1  UNL1        0.4200
     24 F         137.9832  142.3291  158.2422 F       1  UNL1       -0.1658
     25 F         139.7828  143.4439  158.1050 F       1  UNL1       -0.1658
     26 F         138.1154  142.3763  160.3589 F       1  UNL1       -0.1658
     27 N         144.4112  138.8407  163.4750 N.3     1  UNL1       -0.2975
     28 H         145.2971  139.3420  163.5398 H       1  UNL1        0.1232
     29 C         144.1736  140.1638  161.2518 C.3     1  UNL1        0.1591
     30 C         143.7460  140.2240  159.8153 C.3     1  UNL1        0.1729
     31 O         143.1285  139.0214  159.1655 O.3     1  UNL1       -0.3511
     32 C         142.9385  137.7584  159.9522 C.3     1  UNL1        0.1437
     33 C         143.3661  137.6982  161.3887 C.3     1  UNL1        0.0503
     34 C         143.9836  138.9009  162.0385 C.3     1  UNL1        0.0865
     35 C         144.7865  142.6878  161.1917 C.3     1  UNL1        0.1742
     36 O         144.7911  141.3664  161.9016 O.3     1  UNL1       -0.3496
     37 C         138.9423  140.7533  169.6493 C.1     1  UNL1       -0.0072
     38 C         137.9974  139.8479  170.3823 C.1     1  UNL1       -0.0831
     39 C         137.0525  138.9425  171.1155 C.3     1  UNL1        0.0646
     40 C         135.6673  138.6242  171.5949 C.3     1  UNL1        0.0140
     41 C         136.8011  137.6927  171.9059 C.3     1  UNL1        0.0140
@<TRIPOS>BOND
     1    35    36    1
     2    36    29    1
     3    29    30    1
     4    30    31    1
     5    31    32    1
     6    32    33    1
     7    33    34    1
     8    34    27    1
     9     1    27    1
    10     1     2    1
    11     3     2    1
    12     3     4    1
    13     4     5    1
    14     5     6   am
    15     6     7    2
    16     6    37    1
    17    37    38    3
    18    38    39    1
    19    39    40    1
    20    40    41    1
    21     5     8    1
    22     8     9    1
    23     9    11    1
    24    11    12    2
    25    11    13   am
    26    13    14    1
    27    14    15    1
    28    15    16    1
    29    16    17   ar
    30    17    18   ar
    31    18    19   ar
    32    19    23    1
    33    23    24    1
    34    23    25    1
    35    23    26    1
    36    19    20   ar
    37    20    21   ar
    38    21    22    1
    39     9    10    1
    40    34    29    1
    41    10     1    1
    42     9     3    1
    43    22    13    1
    44    41    39    1
    45    21    16   ar
    46    27    28    1
@<TRIPOS>MOLECULE
*****
 41 46 0 0 0
SMALL
GASTEIGER

@<TRIPOS>ATOM
      1 C         142.8621  143.5336  163.4253 C.3     1  UNL1        0.0546
      2 C         142.1727  144.7644  162.9155 C.3     1  UNL1        0.0180
      3 C         141.8857  144.5644  161.4569 C.3     1  UNL1        0.0310
      4 C         141.2822  145.2014  160.2403 C.3     1  UNL1        0.0948
      5 N         141.4213  144.2407  159.0967 N.am    1  UNL1       -0.2690
      6 C         140.9531  144.4704  157.6903 C.2     1  UNL1        0.2923
      7 O         141.1625  143.4124  156.6478 O.2     1  UNL1       -0.2604
      8 C         142.1107  143.0099  159.6065 C.3     1  UNL1        0.1029
      9 C         142.3977  143.2099  161.0652 C.3     1  UNL1        0.0902
     10 C         143.0011  142.5729  162.2817 C.3     1  UNL1        0.0261
     11 C         142.9097  141.8555  160.6735 C.2     1  UNL1        0.2267
     12 O         143.9451  141.7280  159.5957 O.2     1  UNL1       -0.2748
     13 N         142.3864  140.6286  161.3597 N.am    1  UNL1       -0.2750
     14 C         142.8984  139.2742  160.9680 C.3     1  UNL1        0.1000
     15 C         142.3750  138.0474  161.6542 C.3     1  UNL1        0.0670
     16 C         141.3397  138.1749  162.7321 C.ar    1  UNL1        0.0583
     17 N         140.8163  136.9479  163.4182 N.ar    1  UNL1       -0.2484
     18 C         139.7809  137.0755  164.4961 C.ar    1  UNL1        0.1023
     19 C         139.2689  138.4299  164.8877 C.ar    1  UNL1        0.0902
     20 C         139.7923  139.6568  164.2015 C.ar    1  UNL1        0.0040
     21 C         140.8276  139.5293  163.1237 C.ar    1  UNL1        0.0113
     22 C         141.3510  140.7561  162.4375 C.3     1  UNL1        0.1213
     23 C         138.2335  138.5575  165.9656 C.3     1  UNL1        0.4200
     24 F         137.1982  138.6850  167.0434 F       1  UNL1       -0.1658
     25 F         138.1859  137.0639  166.0965 F       1  UNL1       -0.1658
     26 F         138.2812  140.0510  165.8346 F       1  UNL1       -0.1658
     27 N         143.3303  143.3038  164.8318 N.3     1  UNL1       -0.2975
     28 H         144.3372  143.1479  164.7852 H       1  UNL1        0.1232
     29 C         143.3771  140.8151  165.5760 C.3     1  UNL1        0.1591
     30 C         142.8016  139.6897  166.3836 C.3     1  UNL1        0.1729
     31 O         141.6037  139.9275  167.2545 O.3     1  UNL1       -0.3511
     32 C         140.9813  141.2909  167.3178 C.3     1  UNL1        0.1437
     33 C         141.5568  142.4163  166.5103 C.3     1  UNL1        0.0503
     34 C         142.7547  142.1784  165.6393 C.3     1  UNL1        0.0865
     35 C         144.8718  139.1969  164.1986 C.3     1  UNL1        0.1742
     36 O         144.5750  140.5773  164.7052 O.3     1  UNL1       -0.3496
     37 C         140.2756  145.7582  157.3263 C.1     1  UNL1       -0.0072
     38 C         139.5981  147.0460  156.9623 C.1     1  UNL1       -0.0831
     39 C         138.9206  148.3339  156.5983 C.3     1  UNL1        0.0646
     40 C         138.5215  149.3448  155.5645 C.3     1  UNL1        0.0140
     41 C         138.1461  149.5535  157.0017 C.3     1  UNL1        0.0140
@<TRIPOS>BOND
     1    35    36    1
     2    36    29    1
     3    29    30    1
     4    30    31    1
     5    31    32    1
     6    32    33    1
     7    33    34    1
     8    34    27    1
     9     1    27    1
    10     1     2    1
    11     3     2    1
    12     3     4    1
    13     4     5    1
    14     5     6   am
    15     6     7    2
    16     6    37    1
    17    37    38    3
    18    38    39    1
    19    39    40    1
    20    40    41    1
    21     5     8    1
    22     8     9    1
    23     9    11    1
    24    11    12    2
    25    11    13   am
    26    13    14    1
    27    14    15    1
    28    15    16    1
    29    16    17   ar
    30    17    18   ar
    31    18    19   ar
    32    19    23    1
    33    23    24    1
    34    23    25    1
    35    23    26    1
    36    19    20   ar
    37    20    21   ar
    38    21    22    1
    39     9    10    1
    40    34    29    1
    41    10     1    1
    42     9     3    1
    43    22    13    1
    44    41    39    1
    45    21    16   ar
    46    27    28    1
@<TRIPOS>MOLECULE
*****
 41 46 0 0 0
SMALL
GASTEIGER

@<TRIPOS>ATOM
      1 C         139.3180  142.6347  159.7813 C.3     1  UNL1        0.0546
      2 C         140.2241  143.4891  158.9452 C.3     1  UNL1        0.0180
      3 C         141.2857  142.6051  158.3609 C.3     1  UNL1        0.0310
      4 C         142.5019  142.5867  157.4830 C.3     1  UNL1        0.0948
      5 N         143.0035  141.1747  157.4154 N.am    1  UNL1       -0.2690
      6 C         144.2010  140.7003  156.6467 C.2     1  UNL1        0.2923
      7 O         144.5833  139.2501  156.6736 O.2     1  UNL1       -0.2604
      8 C         142.0974  140.3203  158.2515 C.3     1  UNL1        0.1029
      9 C         141.0357  141.2043  158.8358 C.3     1  UNL1        0.0902
     10 C         139.8196  141.2227  159.7136 C.3     1  UNL1        0.0261
     11 C         140.7857  139.8037  159.3107 C.2     1  UNL1        0.2267
     12 O         140.2491  138.7742  158.3608 O.2     1  UNL1       -0.2748
     13 N         141.0722  139.4324  160.7356 N.am    1  UNL1       -0.2750
     14 C         140.8222  138.0318  161.2105 C.3     1  UNL1        0.1000
     15 C         141.1088  137.6606  162.6353 C.3     1  UNL1        0.0670
     16 C         141.6453  138.6901  163.5852 C.ar    1  UNL1        0.0583
     17 N         141.9319  138.3188  165.0100 N.ar    1  UNL1       -0.2484
     18 C         142.4684  139.3483  165.9599 C.ar    1  UNL1        0.1023
     19 C         142.7185  140.7491  165.4849 C.ar    1  UNL1        0.0902
     20 C         142.4319  141.1202  164.0601 C.ar    1  UNL1        0.0040
     21 C         141.8953  140.0907  163.1102 C.ar    1  UNL1        0.0113
     22 C         141.6088  140.4619  161.6854 C.3     1  UNL1        0.1213
     23 C         143.2550  141.7785  166.4348 C.3     1  UNL1        0.4200
     24 F         143.7916  142.8080  167.3846 F       1  UNL1       -0.1658
     25 F         143.8882  142.5076  165.2869 F       1  UNL1       -0.1658
     26 F         142.6219  141.0495  167.5826 F       1  UNL1       -0.1658
     27 N         138.1204  143.1091  160.5500 N.3     1  UNL1       -0.2975
     28 H         137.9451  144.0706  160.2581 H       1  UNL1        0.1232
     29 C         138.3732  144.3900  162.7962 C.3     1  UNL1        0.1591
     30 C         138.3966  144.3902  164.2960 C.3     1  UNL1        0.1729
     31 O         138.1907  143.1097  165.0495 O.3     1  UNL1       -0.3511
     32 C         137.9614  141.8288  164.3031 C.3     1  UNL1        0.1437
     33 C         137.9380  141.8287  162.8033 C.3     1  UNL1        0.0503
     34 C         138.1438  143.1093  162.0498 C.3     1  UNL1        0.0865
     35 C         139.9652  146.1085  161.6726 C.3     1  UNL1        0.1742
     36 O         138.5790  145.6706  162.0427 O.3     1  UNL1       -0.3496
     37 C         145.0163  141.6761  155.8510 C.1     1  UNL1       -0.0072
     38 C         145.8315  142.6520  155.0554 C.1     1  UNL1       -0.0831
     39 C         146.6469  143.6278  154.2598 C.3     1  UNL1        0.0646
     40 C         146.7847  144.9622  153.5885 C.3     1  UNL1        0.0140
     41 C         147.9211  143.9838  153.5530 C.3     1  UNL1        0.0140
@<TRIPOS>BOND
     1    35    36    1
     2    36    29    1
     3    29    30    1
     4    30    31    1
     5    31    32    1
     6    32    33    1
     7    33    34    1
     8    34    27    1
     9     1    27    1
    10     1     2    1
    11     3     2    1
    12     3     4    1
    13     4     5    1
    14     5     6   am
    15     6     7    2
    16     6    37    1
    17    37    38    3
    18    38    39    1
    19    39    40    1
    20    40    41    1
    21     5     8    1
    22     8     9    1
    23     9    11    1
    24    11    12    2
    25    11    13   am
    26    13    14    1
    27    14    15    1
    28    15    16    1
    29    16    17   ar
    30    17    18   ar
    31    18    19   ar
    32    19    23    1
    33    23    24    1
    34    23    25    1
    35    23    26    1
    36    19    20   ar
    37    20    21   ar
    38    21    22    1
    39     9    10    1
    40    34    29    1
    41    10     1    1
    42     9     3    1
    43    22    13    1
    44    41    39    1
    45    21    16   ar
    46    27    28    1
@<TRIPOS>MOLECULE
*****
 41 46 0 0 0
SMALL
GASTEIGER

@<TRIPOS>ATOM
      1 C         143.2153  142.2868  158.7087 C.3     1  UNL1        0.0546
      2 C         143.3692  143.6436  158.0878 C.3     1  UNL1        0.0180
      3 C         142.0686  144.0040  157.4332 C.3     1  UNL1        0.0310
      4 C         141.3599  145.0652  156.6449 C.3     1  UNL1        0.0948
      5 N         139.9642  144.5871  156.3739 N.am    1  UNL1       -0.2690
      6 C         138.9078  145.3345  155.6153 C.2     1  UNL1        0.2923
      7 O         137.5502  144.7261  155.4233 O.2     1  UNL1       -0.2604
      8 C         139.8103  143.2303  156.9948 C.3     1  UNL1        0.1029
      9 C         141.1109  142.8699  157.6495 C.3     1  UNL1        0.0902
     10 C         141.8196  141.8087  158.4378 C.3     1  UNL1        0.0261
     11 C         140.1532  141.7359  157.8658 C.2     1  UNL1        0.2267
     12 O         139.9474  140.7123  156.7888 O.2     1  UNL1       -0.2748
     13 N         139.4013  141.6255  159.1591 N.am    1  UNL1       -0.2750
     14 C         138.4437  140.4914  159.3754 C.3     1  UNL1        0.1000
     15 C         137.6918  140.3811  160.6686 C.3     1  UNL1        0.0670
     16 C         137.8977  141.4047  161.7455 C.ar    1  UNL1        0.0583
     17 N         137.1458  141.2943  163.0388 N.ar    1  UNL1       -0.2484
     18 C         137.3516  142.3179  164.1158 C.ar    1  UNL1        0.1023
     19 C         138.3093  143.4520  163.8994 C.ar    1  UNL1        0.0902
     20 C         139.0611  143.5624  162.6062 C.ar    1  UNL1        0.0040
     21 C         138.8553  142.5387  161.5292 C.ar    1  UNL1        0.0113
     22 C         139.6071  142.6491  160.2360 C.3     1  UNL1        0.1213
     23 C         138.5151  144.4756  164.9763 C.3     1  UNL1        0.4200
     24 F         138.7209  145.4993  166.0533 F       1  UNL1       -0.1658
     25 F         139.9953  144.4291  164.7377 F       1  UNL1       -0.1658
     26 F         137.0350  144.5222  165.2150 F       1  UNL1       -0.1658
     27 N         144.2717  141.5394  159.4674 N.3     1  UNL1       -0.2975
     28 H         144.1385  140.5496  159.2599 H       1  UNL1        0.1232
     29 C         144.3880  140.4288  161.8132 C.3     1  UNL1        0.1591
     30 C         144.4676  140.5515  163.3061 C.3     1  UNL1        0.1729
     31 O         144.5106  141.9074  163.9459 O.3     1  UNL1       -0.3511
     32 C         144.4740  143.1408  163.0929 C.3     1  UNL1        0.1437
     33 C         144.3944  143.0181  161.6001 C.3     1  UNL1        0.0503
     34 C         144.3513  141.6621  160.9602 C.3     1  UNL1        0.0865
     35 C         143.3777  138.0395  161.6700 C.3     1  UNL1        0.1742
     36 O         144.3450  139.0728  161.1733 O.3     1  UNL1       -0.3496
     37 C         139.2090  146.6903  155.0487 C.1     1  UNL1       -0.0072
     38 C         139.5102  148.0460  154.4821 C.1     1  UNL1       -0.0831
     39 C         139.8114  149.4019  153.9154 C.3     1  UNL1        0.0646
     40 C         139.7405  150.3807  152.7810 C.3     1  UNL1        0.0140
     41 C         140.4041  150.7713  154.0682 C.3     1  UNL1        0.0140
@<TRIPOS>BOND
     1    35    36    1
     2    36    29    1
     3    29    30    1
     4    30    31    1
     5    31    32    1
     6    32    33    1
     7    33    34    1
     8    34    27    1
     9     1    27    1
    10     1     2    1
    11     3     2    1
    12     3     4    1
    13     4     5    1
    14     5     6   am
    15     6     7    2
    16     6    37    1
    17    37    38    3
    18    38    39    1
    19    39    40    1
    20    40    41    1
    21     5     8    1
    22     8     9    1
    23     9    11    1
    24    11    12    2
    25    11    13   am
    26    13    14    1
    27    14    15    1
    28    15    16    1
    29    16    17   ar
    30    17    18   ar
    31    18    19   ar
    32    19    23    1
    33    23    24    1
    34    23    25    1
    35    23    26    1
    36    19    20   ar
    37    20    21   ar
    38    21    22    1
    39     9    10    1
    40    34    29    1
    41    10     1    1
    42     9     3    1
    43    22    13    1
    44    41    39    1
    45    21    16   ar
    46    27    28    1
@<TRIPOS>MOLECULE
*****
 41 46 0 0 0
SMALL
GASTEIGER

@<TRIPOS>ATOM
      1 C         139.8871  140.0004  157.7649 C.3     1  UNL1        0.0546
      2 C         139.3022  138.8940  156.9380 C.3     1  UNL1        0.0180
      3 C         140.3465  137.8284  156.7843 C.3     1  UNL1        0.0310
      4 C         140.6305  136.4860  156.1783 C.3     1  UNL1        0.0948
      5 N         142.0364  136.1041  156.5355 N.am    1  UNL1       -0.2690
      6 C         142.7348  134.8380  156.1360 C.2     1  UNL1        0.2923
      7 O         144.1495  134.5929  156.5701 O.2     1  UNL1       -0.2604
      8 C         142.6214  137.2105  157.3623 C.3     1  UNL1        0.1029
      9 C         141.5770  138.2762  157.5161 C.3     1  UNL1        0.0902
     10 C         141.2930  139.6186  158.1221 C.3     1  UNL1        0.0261
     11 C         142.8074  138.7240  158.2479 C.2     1  UNL1        0.2267
     12 O         144.0327  139.1235  157.4805 O.2     1  UNL1       -0.2748
     13 N         142.8125  138.7723  159.7472 N.am    1  UNL1       -0.2750
     14 C         144.0429  139.2201  160.4790 C.3     1  UNL1        0.1000
     15 C         144.0479  139.2683  161.9781 C.3     1  UNL1        0.0670
     16 C         142.8226  138.8688  162.7455 C.ar    1  UNL1        0.0583
     17 N         142.8276  138.9170  164.2448 N.ar    1  UNL1       -0.2484
     18 C         141.6023  138.5175  165.0122 C.ar    1  UNL1        0.1023
     19 C         140.3719  138.0697  164.2803 C.ar    1  UNL1        0.0902
     20 C         140.3668  138.0214  162.7811 C.ar    1  UNL1        0.0040
     21 C         141.5922  138.4210  162.0137 C.ar    1  UNL1        0.0113
     22 C         141.5871  138.3727  160.5145 C.3     1  UNL1        0.1213
     23 C         139.1465  137.6701  165.0477 C.3     1  UNL1        0.4200
     24 F         137.9212  137.2705  165.8151 F       1  UNL1       -0.1658
     25 F         139.6338  138.4507  166.2323 F       1  UNL1       -0.1658
     26 F         138.6592  136.8895  163.8631 F       1  UNL1       -0.1658
     27 N         139.1888  141.2665  158.1643 N.3     1  UNL1       -0.2975
     28 H         139.8625  142.0235  158.0484 H       1  UNL1        0.1232
     29 C         138.6420  142.7336  160.2377 C.3     1  UNL1        0.1591
     30 C         138.0694  142.8710  161.6172 C.3     1  UNL1        0.1729
     31 O         137.4708  141.6788  162.3030 O.3     1  UNL1       -0.3511
     32 C         137.4449  140.3491  161.6092 C.3     1  UNL1        0.1437
     33 C         138.0176  140.2116  160.2297 C.3     1  UNL1        0.0503
     34 C         138.6161  141.4039  159.5439 C.3     1  UNL1        0.0865
     35 C         140.3296  144.7089  160.2233 C.3     1  UNL1        0.1742
     36 O         139.2405  143.9258  159.5519 O.3     1  UNL1       -0.3496
     37 C         142.0184  133.8173  155.3026 C.1     1  UNL1       -0.0072
     38 C         141.3019  132.7965  154.4691 C.1     1  UNL1       -0.0831
     39 C         140.5855  131.7757  153.6355 C.3     1  UNL1        0.0646
     40 C         140.1512  131.2684  152.2924 C.3     1  UNL1        0.0140
     41 C         139.7790  130.5150  153.5349 C.3     1  UNL1        0.0140
@<TRIPOS>BOND
     1    35    36    1
     2    36    29    1
     3    29    30    1
     4    30    31    1
     5    31    32    1
     6    32    33    1
     7    33    34    1
     8    34    27    1
     9     1    27    1
    10     1     2    1
    11     3     2    1
    12     3     4    1
    13     4     5    1
    14     5     6   am
    15     6     7    2
    16     6    37    1
    17    37    38    3
    18    38    39    1
    19    39    40    1
    20    40    41    1
    21     5     8    1
    22     8     9    1
    23     9    11    1
    24    11    12    2
    25    11    13   am
    26    13    14    1
    27    14    15    1
    28    15    16    1
    29    16    17   ar
    30    17    18   ar
    31    18    19   ar
    32    19    23    1
    33    23    24    1
    34    23    25    1
    35    23    26    1
    36    19    20   ar
    37    20    21   ar
    38    21    22    1
    39     9    10    1
    40    34    29    1
    41    10     1    1
    42     9     3    1
    43    22    13    1
    44    41    39    1
    45    21    16   ar
    46    27    28    1
@<TRIPOS>MOLECULE
*****
 41 46 0 0 0
SMALL
GASTEIGER

@<TRIPOS>ATOM
      1 C         140.3957  144.0599  160.0923 C.3     1  UNL1        0.0546
      2 C         141.7643  144.3675  159.5610 C.3     1  UNL1        0.0180
      3 C         142.2269  143.1866  158.7602 C.3     1  UNL1        0.0310
      4 C         143.3585  142.6468  157.9368 C.3     1  UNL1        0.0948
      5 N         142.9753  141.2757  157.4643 N.am    1  UNL1       -0.2690
      6 C         143.8135  140.3711  156.6104 C.2     1  UNL1        0.2923
      7 O         143.2949  139.0203  156.2150 O.2     1  UNL1       -0.2604
      8 C         141.6067  140.9681  157.9957 C.3     1  UNL1        0.1029
      9 C         141.1441  142.1490  158.7965 C.3     1  UNL1        0.0902
     10 C         140.0124  142.6888  159.6198 C.3     1  UNL1        0.0261
     11 C         140.0614  141.1116  158.8329 C.2     1  UNL1        0.2267
     12 O         139.1004  140.9900  157.6876 O.2     1  UNL1       -0.2748
     13 N         139.9396  140.1957  160.0146 N.am    1  UNL1       -0.2750
     14 C         138.8569  139.1582  160.0510 C.3     1  UNL1        0.1000
     15 C         138.7352  138.2424  161.2326 C.3     1  UNL1        0.0670
     16 C         139.6962  138.3640  162.3779 C.ar    1  UNL1        0.0583
     17 N         139.5744  137.4481  163.5596 N.ar    1  UNL1       -0.2484
     18 C         140.5354  137.5697  164.7049 C.ar    1  UNL1        0.1023
     19 C         141.6182  138.6073  164.6685 C.ar    1  UNL1        0.0902
     20 C         141.7399  139.5231  163.4869 C.ar    1  UNL1        0.0040
     21 C         140.7789  139.4015  162.3416 C.ar    1  UNL1        0.0113
     22 C         140.9006  140.3173  161.1599 C.3     1  UNL1        0.1213
     23 C         142.5792  138.7289  165.8138 C.3     1  UNL1        0.4200
     24 F         143.5401  138.8505  166.9591 F       1  UNL1       -0.1658
     25 F         141.4435  139.0772  166.7297 F       1  UNL1       -0.1658
     26 F         143.7148  138.3805  164.8979 F       1  UNL1       -0.1658
     27 N         139.5575  144.9646  160.9463 N.3     1  UNL1       -0.2975
     28 H         140.0180  145.8747  160.9514 H       1  UNL1        0.1232
     29 C         140.3331  144.8621  163.4237 C.3     1  UNL1        0.1591
     30 C         140.0640  144.5048  164.8555 C.3     1  UNL1        0.1729
     31 O         138.7502  143.8928  165.2416 O.3     1  UNL1       -0.3511
     32 C         137.7053  143.6380  164.1959 C.3     1  UNL1        0.1437
     33 C         137.9744  143.9952  162.7641 C.3     1  UNL1        0.0503
     34 C         139.2884  144.6073  162.3780 C.3     1  UNL1        0.0865
     35 C         142.9189  144.7020  163.2281 C.3     1  UNL1        0.1742
     36 O         141.6470  145.4741  163.0376 O.3     1  UNL1       -0.3496
     37 C         145.1702  140.8173  156.1520 C.1     1  UNL1       -0.0072
     38 C         146.5269  141.2635  155.6936 C.1     1  UNL1       -0.0831
     39 C         147.8837  141.7097  155.2351 C.3     1  UNL1        0.0646
     40 C         148.7435  142.4702  154.2696 C.3     1  UNL1        0.0140
     41 C         149.3738  141.7220  155.4065 C.3     1  UNL1        0.0140
@<TRIPOS>BOND
     1    35    36    1
     2    36    29    1
     3    29    30    1
     4    30    31    1
     5    31    32    1
     6    32    33    1
     7    33    34    1
     8    34    27    1
     9     1    27    1
    10     1     2    1
    11     3     2    1
    12     3     4    1
    13     4     5    1
    14     5     6   am
    15     6     7    2
    16     6    37    1
    17    37    38    3
    18    38    39    1
    19    39    40    1
    20    40    41    1
    21     5     8    1
    22     8     9    1
    23     9    11    1
    24    11    12    2
    25    11    13   am
    26    13    14    1
    27    14    15    1
    28    15    16    1
    29    16    17   ar
    30    17    18   ar
    31    18    19   ar
    32    19    23    1
    33    23    24    1
    34    23    25    1
    35    23    26    1
    36    19    20   ar
    37    20    21   ar
    38    21    22    1
    39     9    10    1
    40    34    29    1
    41    10     1    1
    42     9     3    1
    43    22    13    1
    44    41    39    1
    45    21    16   ar
    46    27    28    1
@<TRIPOS>MOLECULE
*****
 41 46 0 0 0
SMALL
GASTEIGER

@<TRIPOS>ATOM
      1 C         138.3597  140.6248  160.7985 C.3     1  UNL1        0.0546
      2 C         138.3254  139.2181  160.2790 C.3     1  UNL1        0.0180
      3 C         139.5483  139.0050  159.4368 C.3     1  UNL1        0.0310
      4 C         140.2829  138.0040  158.5953 C.3     1  UNL1        0.0948
      5 N         141.5269  138.6604  158.0742 N.am    1  UNL1       -0.2690
      6 C         142.5561  138.0220  157.1890 C.2     1  UNL1        0.2923
      7 O         143.7548  138.8071  156.7455 O.2     1  UNL1       -0.2604
      8 C         141.5612  140.0671  158.5937 C.3     1  UNL1        0.1029
      9 C         140.3383  140.2801  159.4358 C.3     1  UNL1        0.0902
     10 C         139.6037  141.2812  160.2773 C.3     1  UNL1        0.0261
     11 C         141.1283  141.5552  159.4348 C.2     1  UNL1        0.2267
     12 O         141.2171  142.3815  158.1861 O.2     1  UNL1       -0.2748
     13 N         141.8296  142.0041  160.6826 N.am    1  UNL1       -0.2750
     14 C         142.6195  143.2792  160.6816 C.3     1  UNL1        0.1000
     15 C         143.3207  143.7280  161.9293 C.3     1  UNL1        0.0670
     16 C         143.2319  142.9017  163.1780 C.ar    1  UNL1        0.0583
     17 N         143.9332  143.3505  164.4258 N.ar    1  UNL1       -0.2484
     18 C         143.8444  142.5242  165.6746 C.ar    1  UNL1        0.1023
     19 C         143.0544  141.2491  165.6755 C.ar    1  UNL1        0.0902
     20 C         142.3532  140.8003  164.4278 C.ar    1  UNL1        0.0040
     21 C         142.4420  141.6266  163.1790 C.ar    1  UNL1        0.0113
     22 C         141.7408  141.1778  161.9313 C.3     1  UNL1        0.1213
     23 C         142.9656  140.4228  166.9242 C.3     1  UNL1        0.4200
     24 F         142.8768  139.5965  168.1730 F       1  UNL1       -0.1658
     25 F         142.8352  139.1808  166.0932 F       1  UNL1       -0.1658
     26 F         143.0959  141.6647  167.7553 F       1  UNL1       -0.1658
     27 N         137.3305  141.2632  161.6837 N.3     1  UNL1       -0.2975
     28 H         136.7288  141.8228  161.0794 H       1  UNL1        0.1232
     29 C         138.0796  141.5635  164.1532 C.3     1  UNL1        0.1591
     30 C         138.5091  142.4540  165.2813 C.3     1  UNL1        0.1729
     31 O         138.6190  143.9346  165.0679 O.3     1  UNL1       -0.3511
     32 C         138.2995  144.5249  163.7264 C.3     1  UNL1        0.1437
     33 C         137.8700  143.6344  162.5983 C.3     1  UNL1        0.0503
     34 C         137.7600  142.1536  162.8117 C.3     1  UNL1        0.0865
     35 C         139.2068  139.2622  164.5816 C.3     1  UNL1        0.1742
     36 O         137.9697  140.0829  164.3666 O.3     1  UNL1       -0.3496
     37 C         142.3864  136.5986  156.7473 C.1     1  UNL1       -0.0072
     38 C         142.2168  135.1752  156.3056 C.1     1  UNL1       -0.0831
     39 C         142.0471  133.7518  155.8639 C.3     1  UNL1        0.0646
     40 C         142.5432  132.3368  155.8218 C.3     1  UNL1        0.0140
     41 C         141.2572  132.7013  155.1411 C.3     1  UNL1        0.0140
@<TRIPOS>BOND
     1    35    36    1
     2    36    29    1
     3    29    30    1
     4    30    31    1
     5    31    32    1
     6    32    33    1
     7    33    34    1
     8    34    27    1
     9     1    27    1
    10     1     2    1
    11     3     2    1
    12     3     4    1
    13     4     5    1
    14     5     6   am
    15     6     7    2
    16     6    37    1
    17    37    38    3
    18    38    39    1
    19    39    40    1
    20    40    41    1
    21     5     8    1
    22     8     9    1
    23     9    11    1
    24    11    12    2
    25    11    13   am
    26    13    14    1
    27    14    15    1
    28    15    16    1
    29    16    17   ar
    30    17    18   ar
    31    18    19   ar
    32    19    23    1
    33    23    24    1
    34    23    25    1
    35    23    26    1
    36    19    20   ar
    37    20    21   ar
    38    21    22    1
    39     9    10    1
    40    34    29    1
    41    10     1    1
    42     9     3    1
    43    22    13    1
    44    41    39    1
    45    21    16   ar
    46    27    28    1
