@<TRIPOS>MOLECULE
*****
 32 35 0 0 0
SMALL
GASTEIGER

@<TRIPOS>ATOM
      1 C         141.6229  141.5876  169.1312 C.2     1  UNL1        0.1571
      2 N         141.3444  141.6006  170.6051 N.2     1  UNL1       -0.1436
      3 N         140.0696  140.8467  170.8426 N.2     1  UNL1       -0.1519
      4 C         139.5602  140.3677  169.5155 C.2     1  UNL1        0.0865
      5 C         138.3462  139.5738  169.1336 C.3     1  UNL1        0.0736
      6 C         138.0922  139.2378  167.6940 C.2     1  UNL1       -0.0196
      7 C         139.0522  139.6957  166.6363 C.2     1  UNL1       -0.0016
      8 C         140.2662  140.4896  167.0182 C.2     1  UNL1        0.0027
      9 C         140.5202  140.8256  168.4578 C.2     1  UNL1        0.0395
     10 C         138.7982  139.3596  165.1966 C.ar    1  UNL1        0.0294
     11 C         139.1640  138.0048  164.6668 C.ar    1  UNL1        0.0024
     12 C         138.9100  137.6688  163.2272 C.ar    1  UNL1        0.0025
     13 C         138.2901  138.6876  162.3173 C.ar    1  UNL1        0.0320
     14 C         137.9244  140.0424  162.8471 C.ar    1  UNL1        0.1674
     15 F         137.3046  141.0613  161.9372 F       1  UNL1       -0.2018
     16 C         138.1784  140.3784  164.2867 C.ar    1  UNL1        0.1673
     17 F         137.8126  141.7333  164.8165 F       1  UNL1       -0.2018
     18 N         142.8266  142.3389  166.9548 N.am    1  UNL1       -0.2996
     19 C         142.7978  142.2246  168.4503 C.2     1  UNL1        0.2654
     20 O         143.9438  142.7475  169.2646 O.2     1  UNL1       -0.2684
     21 H         142.0745  141.9958  166.4203 H       1  UNL1        0.1498
     22 C         144.0016  142.9760  166.2739 C.3     1  UNL1        0.0898
     23 N         144.4729  142.6342  161.8117 N.3     1  UNL1       -0.2706
     24 C         144.6585  141.4254  162.6802 C.3     1  UNL1        0.0722
     25 C         144.5014  141.5394  164.1677 C.3     1  UNL1        0.0191
     26 C         144.1587  142.8621  164.7865 C.3     1  UNL1        0.0224
     27 C         143.9730  144.0709  163.9179 C.3     1  UNL1        0.0191
     28 C         144.1302  143.9569  162.4306 C.3     1  UNL1        0.0722
     29 C         144.6300  142.5203  160.3243 C.3     1  UNL1        0.1046
     30 C         143.4424  142.7106  159.4280 C.3     1  UNL1        0.1595
     31 C         141.3273  144.2085  159.2467 C.3     1  UNL1        0.1742
     32 O         142.8202  144.0680  159.2855 O.3     1  UNL1       -0.3496
@<TRIPOS>BOND
     1    31    32    1
     2    32    30    1
     3    30    29    1
     4    29    23    1
     5    23    24    1
     6    24    25    1
     7    25    26    1
     8    26    22    1
     9    22    18    1
    10    18    19   am
    11    19    20    2
    12    19     1    1
    13     1     2    2
    14     2     3    1
    15     3     4    2
    16     4     5    1
    17     5     6    1
    18     6     7    2
    19     7    10    1
    20    10    11   ar
    21    11    12   ar
    22    12    13   ar
    23    13    14   ar
    24    14    15    1
    25    14    16   ar
    26    16    17    1
    27     7     8    1
    28     8     9    2
    29    26    27    1
    30    27    28    1
    31    28    23    1
    32     9     1    1
    33     9     4    1
    34    16    10   ar
    35    18    21    1
@<TRIPOS>MOLECULE
*****
 32 35 0 0 0
SMALL
GASTEIGER

@<TRIPOS>ATOM
      1 C         140.2000  140.5784  169.7522 C.2     1  UNL1        0.1571
      2 N         140.2587  140.6967  171.2464 N.2     1  UNL1       -0.1436
      3 N         141.5124  141.4388  171.6036 N.2     1  UNL1       -0.1519
      4 C         142.2285  141.7790  170.3302 C.2     1  UNL1        0.0865
      5 C         143.5144  142.5043  170.0648 C.3     1  UNL1        0.0736
      6 C         143.9891  142.6979  168.6552 C.2     1  UNL1       -0.0196
      7 C         143.1780  142.1661  167.5110 C.2     1  UNL1       -0.0016
      8 C         141.8921  141.4408  167.7763 C.2     1  UNL1        0.0027
      9 C         141.4174  141.2473  169.1860 C.2     1  UNL1        0.0395
     10 C         143.6528  142.3597  166.1012 C.ar    1  UNL1        0.0294
     11 C         143.8440  143.7446  165.5578 C.ar    1  UNL1        0.0024
     12 C         144.3188  143.9382  164.1481 C.ar    1  UNL1        0.0025
     13 C         144.6023  142.7468  163.2819 C.ar    1  UNL1        0.0320
     14 C         144.4110  141.3618  163.8254 C.ar    1  UNL1        0.1674
     15 F         144.6945  140.1705  162.9593 F       1  UNL1       -0.2018
     16 C         143.9362  141.1683  165.2351 C.ar    1  UNL1        0.1673
     17 F         143.7449  139.7834  165.7786 F       1  UNL1       -0.2018
     18 N         139.2703  139.7209  167.4827 N.am    1  UNL1       -0.2996
     19 C         139.1145  139.9087  168.9628 C.2     1  UNL1        0.2654
     20 O         137.8732  139.4268  169.6533 O.2     1  UNL1       -0.2684
     21 H         140.0850  140.0372  167.0294 H       1  UNL1        0.1498
     22 C         138.1848  139.0512  166.6933 C.3     1  UNL1        0.0898
     23 N         138.4890  138.8032  162.2104 N.3     1  UNL1       -0.2706
     24 C         138.8752  137.6251  163.0547 C.3     1  UNL1        0.0722
     25 C         138.7738  137.7078  164.5490 C.3     1  UNL1        0.0191
     26 C         138.2862  138.9686  165.1990 C.3     1  UNL1        0.0224
     27 C         137.8999  140.1467  164.3547 C.3     1  UNL1        0.0191
     28 C         138.0013  140.0640  162.8605 C.3     1  UNL1        0.0722
     29 C         138.5904  138.7206  160.7161 C.3     1  UNL1        0.1046
     30 C         139.4215  139.7178  159.9646 C.3     1  UNL1        0.1595
     31 C         141.5893  138.3706  160.4506 C.3     1  UNL1        0.1742
     32 O         140.8609  139.4204  159.6648 O.3     1  UNL1       -0.3496
@<TRIPOS>BOND
     1    31    32    1
     2    32    30    1
     3    30    29    1
     4    29    23    1
     5    23    24    1
     6    24    25    1
     7    25    26    1
     8    26    22    1
     9    22    18    1
    10    18    19   am
    11    19    20    2
    12    19     1    1
    13     1     2    2
    14     2     3    1
    15     3     4    2
    16     4     5    1
    17     5     6    1
    18     6     7    2
    19     7    10    1
    20    10    11   ar
    21    11    12   ar
    22    12    13   ar
    23    13    14   ar
    24    14    15    1
    25    14    16   ar
    26    16    17    1
    27     7     8    1
    28     8     9    2
    29    26    27    1
    30    27    28    1
    31    28    23    1
    32     9     1    1
    33     9     4    1
    34    16    10   ar
    35    18    21    1
@<TRIPOS>MOLECULE
*****
 32 35 0 0 0
SMALL
GASTEIGER

@<TRIPOS>ATOM
      1 C         138.6333  139.5583  168.1026 C.2     1  UNL1        0.1571
      2 N         138.1044  139.5132  169.5055 N.2     1  UNL1       -0.1436
      3 N         138.7910  140.5884  170.2945 N.2     1  UNL1       -0.1519
      4 C         139.7443  141.2980  169.3792 C.2     1  UNL1        0.0865
      5 C         140.6885  142.4416  169.6042 C.3     1  UNL1        0.0736
      6 C         141.5352  142.9485  168.4746 C.2     1  UNL1       -0.0196
      7 C         141.4377  142.3118  167.1199 C.2     1  UNL1       -0.0016
      8 C         140.4935  141.1682  166.8949 C.2     1  UNL1        0.0027
      9 C         139.6468  140.6613  168.0245 C.2     1  UNL1        0.0395
     10 C         142.2844  142.8188  165.9902 C.ar    1  UNL1        0.0294
     11 C         143.7604  142.5516  165.9808 C.ar    1  UNL1        0.0024
     12 C         144.6072  143.0586  164.8511 C.ar    1  UNL1        0.0025
     13 C         143.9779  143.8328  163.7310 C.ar    1  UNL1        0.0320
     14 C         142.5018  144.1000  163.7405 C.ar    1  UNL1        0.1674
     15 F         141.8726  144.8741  162.6204 F       1  UNL1       -0.2018
     16 C         141.6552  143.5930  164.8701 C.ar    1  UNL1        0.1673
     17 F         140.1791  143.8602  164.8797 F       1  UNL1       -0.2018
     18 N         139.0776  138.5524  165.7486 N.am    1  UNL1       -0.2996
     19 C         138.2211  138.6583  166.9756 C.2     1  UNL1        0.2654
     20 O         136.9526  137.8641  167.0755 O.2     1  UNL1       -0.2684
     21 H         139.9102  139.0737  165.6830 H       1  UNL1        0.1498
     22 C         138.6654  137.6525  164.6216 C.3     1  UNL1        0.0898
     23 N         140.1602  138.4407  160.4509 N.3     1  UNL1       -0.2706
     24 C         138.7044  138.6096  160.7703 C.3     1  UNL1        0.0722
     25 C         138.2061  138.3469  162.1606 C.3     1  UNL1        0.0191
     26 C         139.1637  137.9152  163.2314 C.3     1  UNL1        0.0224
     27 C         140.6195  137.7462  162.9121 C.3     1  UNL1        0.0191
     28 C         141.1178  138.0090  161.5218 C.3     1  UNL1        0.0722
     29 C         140.6586  138.7034  159.0608 C.3     1  UNL1        0.1046
     30 C         139.9782  138.0638  157.8869 C.3     1  UNL1        0.1595
     31 C         142.2408  137.0374  157.1267 C.3     1  UNL1        0.1742
     32 O         140.7817  137.2885  156.8853 O.3     1  UNL1       -0.3496
@<TRIPOS>BOND
     1    31    32    1
     2    32    30    1
     3    30    29    1
     4    29    23    1
     5    23    24    1
     6    24    25    1
     7    25    26    1
     8    26    22    1
     9    22    18    1
    10    18    19   am
    11    19    20    2
    12    19     1    1
    13     1     2    2
    14     2     3    1
    15     3     4    2
    16     4     5    1
    17     5     6    1
    18     6     7    2
    19     7    10    1
    20    10    11   ar
    21    11    12   ar
    22    12    13   ar
    23    13    14   ar
    24    14    15    1
    25    14    16   ar
    26    16    17    1
    27     7     8    1
    28     8     9    2
    29    26    27    1
    30    27    28    1
    31    28    23    1
    32     9     1    1
    33     9     4    1
    34    16    10   ar
    35    18    21    1
@<TRIPOS>MOLECULE
*****
 32 35 0 0 0
SMALL
GASTEIGER

@<TRIPOS>ATOM
      1 C         139.5282  139.7927  167.7365 C.2     1  UNL1        0.1571
      2 N         139.2631  139.7603  169.2125 N.2     1  UNL1       -0.1436
      3 N         140.3076  140.5973  169.8895 N.2     1  UNL1       -0.1519
      4 C         141.2184  141.1469  168.8319 C.2     1  UNL1        0.0865
      5 C         142.4240  142.0360  168.9086 C.3     1  UNL1        0.0736
      6 C         143.1480  142.4277  167.6547 C.2     1  UNL1       -0.0196
      7 C         142.6663  141.9304  166.3240 C.2     1  UNL1       -0.0016
      8 C         141.4606  141.0414  166.2473 C.2     1  UNL1        0.0027
      9 C         140.7367  140.6496  167.5012 C.2     1  UNL1        0.0395
     10 C         143.3903  142.3222  165.0701 C.ar    1  UNL1        0.0294
     11 C         144.6492  141.6080  164.6766 C.ar    1  UNL1        0.0024
     12 C         145.3733  141.9998  163.4226 C.ar    1  UNL1        0.0025
     13 C         144.8383  143.1058  162.5622 C.ar    1  UNL1        0.0320
     14 C         143.5792  143.8201  162.9557 C.ar    1  UNL1        0.1674
     15 F         143.0443  144.9262  162.0952 F       1  UNL1       -0.2018
     16 C         142.8553  143.4283  164.2096 C.ar    1  UNL1        0.1673
     17 F         141.5963  144.1426  164.6031 F       1  UNL1       -0.2018
     18 N         139.2993  138.8965  165.3085 N.am    1  UNL1       -0.2996
     19 C         138.7258  139.0912  166.6809 C.2     1  UNL1        0.2654
     20 O         137.3501  138.5844  166.9977 O.2     1  UNL1       -0.2684
     21 H         140.2023  139.2292  165.1006 H       1  UNL1        0.1498
     22 C         138.4969  138.1951  164.2530 C.3     1  UNL1        0.0898
     23 N         138.7840  139.5149  159.9605 N.3     1  UNL1       -0.2706
     24 C         137.8925  140.2535  160.9142 C.3     1  UNL1        0.0722
     25 C         137.7968  139.8135  162.3451 C.3     1  UNL1        0.0191
     26 C         138.5926  138.6349  162.8222 C.3     1  UNL1        0.0224
     27 C         139.4842  137.8964  161.8685 C.3     1  UNL1        0.0191
     28 C         139.5799  138.3363  160.4377 C.3     1  UNL1        0.0722
     29 C         138.8798  139.9548  158.5297 C.3     1  UNL1        0.1046
     30 C         137.7879  140.7880  157.9266 C.3     1  UNL1        0.1595
     31 C         135.8215  141.0290  156.2457 C.3     1  UNL1        0.1742
     32 O         137.0164  140.2737  156.7475 O.3     1  UNL1       -0.3496
@<TRIPOS>BOND
     1    31    32    1
     2    32    30    1
     3    30    29    1
     4    29    23    1
     5    23    24    1
     6    24    25    1
     7    25    26    1
     8    26    22    1
     9    22    18    1
    10    18    19   am
    11    19    20    2
    12    19     1    1
    13     1     2    2
    14     2     3    1
    15     3     4    2
    16     4     5    1
    17     5     6    1
    18     6     7    2
    19     7    10    1
    20    10    11   ar
    21    11    12   ar
    22    12    13   ar
    23    13    14   ar
    24    14    15    1
    25    14    16   ar
    26    16    17    1
    27     7     8    1
    28     8     9    2
    29    26    27    1
    30    27    28    1
    31    28    23    1
    32     9     1    1
    33     9     4    1
    34    16    10   ar
    35    18    21    1
@<TRIPOS>MOLECULE
*****
 32 35 0 0 0
SMALL
GASTEIGER

@<TRIPOS>ATOM
      1 C         139.6517  139.8100  167.6130 C.2     1  UNL1        0.1571
      2 N         139.4656  139.6462  169.0924 N.2     1  UNL1       -0.1436
      3 N         140.4865  140.4992  169.7852 N.2     1  UNL1       -0.1519
      4 C         141.3036  141.1903  168.7341 C.2     1  UNL1        0.0865
      5 C         142.4507  142.1523  168.8259 C.3     1  UNL1        0.0736
      6 C         143.0818  142.6885  167.5753 C.2     1  UNL1       -0.0196
      7 C         142.5659  142.2625  166.2328 C.2     1  UNL1       -0.0016
      8 C         141.4187  141.3004  166.1409 C.2     1  UNL1        0.0027
      9 C         140.7876  140.7643  167.3916 C.2     1  UNL1        0.0395
     10 C         143.1971  142.7986  164.9821 C.ar    1  UNL1        0.0294
     11 C         142.7648  144.1260  164.4334 C.ar    1  UNL1        0.0024
     12 C         143.3960  144.6622  163.1827 C.ar    1  UNL1        0.0025
     13 C         144.4595  143.8709  162.4807 C.ar    1  UNL1        0.0320
     14 C         144.8918  142.5434  163.0295 C.ar    1  UNL1        0.1674
     15 F         145.9553  141.7521  162.3275 F       1  UNL1       -0.2018
     16 C         144.2606  142.0073  164.2801 C.ar    1  UNL1        0.1673
     17 F         144.6929  140.6799  164.8288 F       1  UNL1       -0.2018
     18 N         139.4924  138.7446  165.2488 N.am    1  UNL1       -0.2996
     19 C         138.8437  139.1376  166.5430 C.2     1  UNL1        0.2654
     20 O         137.3872  138.8581  166.7669 O.2     1  UNL1       -0.2684
     21 H         140.4484  138.9280  165.1017 H       1  UNL1        0.1498
     22 C         138.6845  138.0722  164.1787 C.3     1  UNL1        0.0898
     23 N         138.5550  139.8109  160.0302 N.3     1  UNL1       -0.2706
     24 C         137.8337  140.4955  161.1531 C.3     1  UNL1        0.0722
     25 C         137.8769  139.9159  162.5360 C.3     1  UNL1        0.0191
     26 C         138.6413  138.6517  162.7959 C.3     1  UNL1        0.0224
     27 C         139.3626  137.9671  161.6729 C.3     1  UNL1        0.0191
     28 C         139.3195  138.5467  160.2901 C.3     1  UNL1        0.0722
     29 C         138.5119  140.3905  158.6473 C.3     1  UNL1        0.1046
     30 C         138.2112  141.8472  158.4538 C.3     1  UNL1        0.1595
     31 C         139.8435  143.7004  159.2612 C.3     1  UNL1        0.1742
     32 O         139.3245  142.8116  158.1700 O.3     1  UNL1       -0.3496
@<TRIPOS>BOND
     1    31    32    1
     2    32    30    1
     3    30    29    1
     4    29    23    1
     5    23    24    1
     6    24    25    1
     7    25    26    1
     8    26    22    1
     9    22    18    1
    10    18    19   am
    11    19    20    2
    12    19     1    1
    13     1     2    2
    14     2     3    1
    15     3     4    2
    16     4     5    1
    17     5     6    1
    18     6     7    2
    19     7    10    1
    20    10    11   ar
    21    11    12   ar
    22    12    13   ar
    23    13    14   ar
    24    14    15    1
    25    14    16   ar
    26    16    17    1
    27     7     8    1
    28     8     9    2
    29    26    27    1
    30    27    28    1
    31    28    23    1
    32     9     1    1
    33     9     4    1
    34    16    10   ar
    35    18    21    1
@<TRIPOS>MOLECULE
*****
 32 35 0 0 0
SMALL
GASTEIGER

@<TRIPOS>ATOM
      1 C         140.8921  144.4648  161.0990 C.2     1  UNL1        0.1571
      2 N         140.4274  145.8723  160.8693 N.2     1  UNL1       -0.1436
      3 N         139.2200  146.1077  161.7277 N.2     1  UNL1       -0.1519
      4 C         138.9386  144.8456  162.4880 C.2     1  UNL1        0.0865
      5 C         137.8748  144.4898  163.4838 C.3     1  UNL1        0.0736
      6 C         137.8445  143.1186  164.0910 C.2     1  UNL1       -0.0196
      7 C         138.8779  142.1032  163.7025 C.2     1  UNL1       -0.0016
      8 C         139.9417  142.4590  162.7066 C.2     1  UNL1        0.0027
      9 C         139.9720  143.8302  162.0994 C.2     1  UNL1        0.0395
     10 C         138.8475  140.7319  164.3098 C.ar    1  UNL1        0.0294
     11 C         138.9747  140.5665  165.7952 C.ar    1  UNL1        0.0024
     12 C         138.9444  139.1952  166.4025 C.ar    1  UNL1        0.0025
     13 C         138.7868  137.9894  165.5243 C.ar    1  UNL1        0.0320
     14 C         138.6596  138.1548  164.0389 C.ar    1  UNL1        0.1674
     15 F         138.5020  136.9490  163.1607 F       1  UNL1       -0.2018
     16 C         138.6899  139.5261  163.4316 C.ar    1  UNL1        0.1673
     17 F         138.5627  139.6915  161.9462 F       1  UNL1       -0.2018
     18 N         142.8025  142.7046  161.1493 N.am    1  UNL1       -0.2996
     19 C         142.0702  143.8072  160.4435 C.2     1  UNL1        0.2654
     20 O         142.5160  144.2520  159.0821 O.2     1  UNL1       -0.2684
     21 H         142.5100  142.4126  162.0429 H       1  UNL1        0.1498
     22 C         143.9806  142.0470  160.4938 C.3     1  UNL1        0.0898
     23 N         143.3397  138.7280  157.5234 N.3     1  UNL1       -0.2706
     24 C         143.9687  140.0168  157.0838 C.3     1  UNL1        0.0722
     25 C         144.1823  141.1232  158.0740 C.3     1  UNL1        0.0191
     26 C         143.7669  140.9407  159.5037 C.3     1  UNL1        0.0224
     27 C         143.1379  139.6519  159.9433 C.3     1  UNL1        0.0191
     28 C         142.9243  138.5456  158.9532 C.3     1  UNL1        0.0722
     29 C         143.1260  137.6216  156.5333 C.3     1  UNL1        0.1046
     30 C         142.8391  136.2300  157.0141 C.3     1  UNL1        0.1595
     31 C         143.6958  133.8078  157.4004 C.3     1  UNL1        0.1742
     32 O         143.7633  135.1057  156.6513 O.3     1  UNL1       -0.3496
@<TRIPOS>BOND
     1    31    32    1
     2    32    30    1
     3    30    29    1
     4    29    23    1
     5    23    24    1
     6    24    25    1
     7    25    26    1
     8    26    22    1
     9    22    18    1
    10    18    19   am
    11    19    20    2
    12    19     1    1
    13     1     2    2
    14     2     3    1
    15     3     4    2
    16     4     5    1
    17     5     6    1
    18     6     7    2
    19     7    10    1
    20    10    11   ar
    21    11    12   ar
    22    12    13   ar
    23    13    14   ar
    24    14    15    1
    25    14    16   ar
    26    16    17    1
    27     7     8    1
    28     8     9    2
    29    26    27    1
    30    27    28    1
    31    28    23    1
    32     9     1    1
    33     9     4    1
    34    16    10   ar
    35    18    21    1
@<TRIPOS>MOLECULE
*****
 32 35 0 0 0
SMALL
GASTEIGER

@<TRIPOS>ATOM
      1 C         138.9393  139.1202  166.4332 C.2     1  UNL1        0.1571
      2 N         138.2949  138.8788  167.7660 N.2     1  UNL1       -0.1436
      3 N         138.8311  139.8945  168.7308 N.2     1  UNL1       -0.1519
      4 C         139.8069  140.7636  167.9943 C.2     1  UNL1        0.0865
      5 C         140.6431  141.9289  168.4332 C.3     1  UNL1        0.0736
      6 C         141.5462  142.6157  167.4521 C.2     1  UNL1       -0.0196
      7 C         141.6131  142.1372  166.0321 C.2     1  UNL1       -0.0016
      8 C         140.7769  140.9719  165.5932 C.2     1  UNL1        0.0027
      9 C         139.8738  140.2851  166.5743 C.2     1  UNL1        0.0395
     10 C         142.5163  142.8240  165.0509 C.ar    1  UNL1        0.0294
     11 C         142.1488  144.1745  164.5114 C.ar    1  UNL1        0.0024
     12 C         143.0520  144.8614  163.5303 C.ar    1  UNL1        0.0025
     13 C         144.3227  144.1977  163.0887 C.ar    1  UNL1        0.0320
     14 C         144.6901  142.8471  163.6283 C.ar    1  UNL1        0.1674
     15 F         145.9607  142.1834  163.1867 F       1  UNL1       -0.2018
     16 C         143.7869  142.1603  164.6093 C.ar    1  UNL1        0.1673
     17 F         144.1544  140.8098  165.1489 F       1  UNL1       -0.2018
     18 N         138.6081  139.0388  163.8575 N.am    1  UNL1       -0.2996
     19 C         138.6927  138.3346  165.1794 C.2     1  UNL1        0.2654
     20 O         138.5305  136.8451  165.2472 O.2     1  UNL1       -0.2684
     21 H         138.7146  140.0165  163.8130 H       1  UNL1        0.1498
     22 C         138.3614  138.2533  162.6037 C.3     1  UNL1        0.0898
     23 N         141.3599  138.3682  159.2501 N.3     1  UNL1       -0.2706
     24 C         139.9130  138.6501  158.9725 C.3     1  UNL1        0.0722
     25 C         138.9135  138.6117  160.0905 C.3     1  UNL1        0.0191
     26 C         139.3609  138.2916  161.4859 C.3     1  UNL1        0.0224
     27 C         140.8078  138.0097  161.7635 C.3     1  UNL1        0.0191
     28 C         141.8072  138.0480  160.6457 C.3     1  UNL1        0.0722
     29 C         142.3594  138.4065  158.1324 C.3     1  UNL1        0.1046
     30 C         143.2661  139.5913  157.9774 C.3     1  UNL1        0.1595
     31 C         143.6525  142.1400  158.3019 C.3     1  UNL1        0.1742
     32 O         142.9585  140.8705  158.6979 O.3     1  UNL1       -0.3496
@<TRIPOS>BOND
     1    31    32    1
     2    32    30    1
     3    30    29    1
     4    29    23    1
     5    23    24    1
     6    24    25    1
     7    25    26    1
     8    26    22    1
     9    22    18    1
    10    18    19   am
    11    19    20    2
    12    19     1    1
    13     1     2    2
    14     2     3    1
    15     3     4    2
    16     4     5    1
    17     5     6    1
    18     6     7    2
    19     7    10    1
    20    10    11   ar
    21    11    12   ar
    22    12    13   ar
    23    13    14   ar
    24    14    15    1
    25    14    16   ar
    26    16    17    1
    27     7     8    1
    28     8     9    2
    29    26    27    1
    30    27    28    1
    31    28    23    1
    32     9     1    1
    33     9     4    1
    34    16    10   ar
    35    18    21    1
@<TRIPOS>MOLECULE
*****
 32 35 0 0 0
SMALL
GASTEIGER

@<TRIPOS>ATOM
      1 C         138.3163  141.9681  162.1955 C.2     1  UNL1        0.1571
      2 N         137.7858  143.2338  161.5899 N.2     1  UNL1       -0.1436
      3 N         138.0325  144.3507  162.5602 N.2     1  UNL1       -0.1519
      4 C         138.7155  143.7754  163.7655 C.2     1  UNL1        0.0865
      5 C         139.2003  144.4022  165.0391 C.3     1  UNL1        0.0736
      6 C         139.8606  143.5564  166.0872 C.2     1  UNL1       -0.0196
      7 C         140.0360  142.0839  165.8618 C.2     1  UNL1       -0.0016
      8 C         139.5511  141.4571  164.5882 C.2     1  UNL1        0.0027
      9 C         138.8909  142.3029  163.5401 C.2     1  UNL1        0.0395
     10 C         140.6962  141.2381  166.9101 C.ar    1  UNL1        0.0294
     11 C         140.2205  141.2979  168.3313 C.ar    1  UNL1        0.0024
     12 C         140.8807  140.4521  169.3795 C.ar    1  UNL1        0.0025
     13 C         142.0168  139.5465  169.0065 C.ar    1  UNL1        0.0320
     14 C         142.4926  139.4867  167.5851 C.ar    1  UNL1        0.1674
     15 F         143.6286  138.5810  167.2120 F       1  UNL1       -0.2018
     16 C         141.8323  140.3324  166.5370 C.ar    1  UNL1        0.1673
     17 F         142.3081  140.2726  165.1156 F       1  UNL1       -0.2018
     18 N         138.8917  140.3875  160.2154 N.am    1  UNL1       -0.2996
     19 C         138.2788  140.6067  161.5669 C.2     1  UNL1        0.2654
     20 O         137.6286  139.4645  162.2897 O.2     1  UNL1       -0.2684
     21 H         139.3185  141.1371  159.7410 H       1  UNL1        0.1498
     22 C         138.8543  139.0261  159.5868 C.3     1  UNL1        0.0898
     23 N         142.3128  137.6094  157.0805 N.3     1  UNL1       -0.2706
     24 C         142.5614  138.1969  158.4380 C.3     1  UNL1        0.0722
     25 C         141.4085  138.6692  159.2735 C.3     1  UNL1        0.0191
     26 C         140.0070  138.5538  158.7513 C.3     1  UNL1        0.0224
     27 C         139.7584  137.9663  157.3938 C.3     1  UNL1        0.0191
     28 C         140.9113  137.4941  156.5584 C.3     1  UNL1        0.0722
     29 C         143.4656  137.1372  156.2450 C.3     1  UNL1        0.1046
     30 C         143.7502  135.6697  156.1208 C.3     1  UNL1        0.1595
     31 C         144.0939  133.4147  157.3648 C.3     1  UNL1        0.1742
     32 O         143.4021  134.7404  157.2456 O.3     1  UNL1       -0.3496
@<TRIPOS>BOND
     1    31    32    1
     2    32    30    1
     3    30    29    1
     4    29    23    1
     5    23    24    1
     6    24    25    1
     7    25    26    1
     8    26    22    1
     9    22    18    1
    10    18    19   am
    11    19    20    2
    12    19     1    1
    13     1     2    2
    14     2     3    1
    15     3     4    2
    16     4     5    1
    17     5     6    1
    18     6     7    2
    19     7    10    1
    20    10    11   ar
    21    11    12   ar
    22    12    13   ar
    23    13    14   ar
    24    14    15    1
    25    14    16   ar
    26    16    17    1
    27     7     8    1
    28     8     9    2
    29    26    27    1
    30    27    28    1
    31    28    23    1
    32     9     1    1
    33     9     4    1
    34    16    10   ar
    35    18    21    1
@<TRIPOS>MOLECULE
*****
 32 35 0 0 0
SMALL
GASTEIGER

@<TRIPOS>ATOM
      1 C         138.8505  141.5293  163.2118 C.2     1  UNL1        0.1571
      2 N         138.0983  140.3879  162.5941 N.2     1  UNL1       -0.1436
      3 N         137.9681  139.3065  163.6253 N.2     1  UNL1       -0.1519
      4 C         138.6396  139.7794  164.8804 C.2     1  UNL1        0.0865
      5 C         138.8250  139.1367  166.2230 C.3     1  UNL1        0.0736
      6 C         139.5558  139.8677  167.3099 C.2     1  UNL1       -0.0196
      7 C         140.1012  141.2415  167.0544 C.2     1  UNL1       -0.0016
      8 C         139.9158  141.8842  165.7118 C.2     1  UNL1        0.0027
      9 C         139.1850  141.1532  164.6249 C.2     1  UNL1        0.0395
     10 C         140.8320  141.9725  168.1414 C.ar    1  UNL1        0.0294
     11 C         140.1602  143.0976  168.8714 C.ar    1  UNL1        0.0024
     12 C         140.8910  143.8286  169.9585 C.ar    1  UNL1        0.0025
     13 C         142.2935  143.4345  170.3155 C.ar    1  UNL1        0.0320
     14 C         142.9653  142.3094  169.5854 C.ar    1  UNL1        0.1674
     15 F         144.3679  141.9153  169.9425 F       1  UNL1       -0.2018
     16 C         142.2345  141.5784  168.4985 C.ar    1  UNL1        0.1673
     17 F         142.9063  140.4533  167.7684 F       1  UNL1       -0.2018
     18 N         140.5496  142.9831  161.8890 N.am    1  UNL1       -0.2996
     19 C         139.2057  142.8201  162.5353 C.2     1  UNL1        0.2654
     20 O         138.2173  143.9478  162.5051 O.2     1  UNL1       -0.2684
     21 H         141.1984  142.2429  161.9088 H       1  UNL1        0.1498
     22 C         140.9048  144.2739  161.2125 C.3     1  UNL1        0.0898
     23 N         139.9210  144.8798  156.8633 N.3     1  UNL1       -0.2706
     24 C         140.8419  145.8343  157.5640 C.3     1  UNL1        0.0722
     25 C         141.1698  145.6323  159.0138 C.3     1  UNL1        0.0191
     26 C         140.5768  144.4758  159.7628 C.3     1  UNL1        0.0224
     27 C         139.6560  143.5214  159.0621 C.3     1  UNL1        0.0191
     28 C         139.3281  143.7234  157.6124 C.3     1  UNL1        0.0722
     29 C         139.5931  145.0818  155.4137 C.3     1  UNL1        0.1046
     30 C         138.2613  145.6472  155.0177 C.3     1  UNL1        0.1595
     31 C         136.9943  143.4166  154.6058 C.3     1  UNL1        0.1742
     32 O         137.0221  144.8129  155.1533 O.3     1  UNL1       -0.3496
@<TRIPOS>BOND
     1    31    32    1
     2    32    30    1
     3    30    29    1
     4    29    23    1
     5    23    24    1
     6    24    25    1
     7    25    26    1
     8    26    22    1
     9    22    18    1
    10    18    19   am
    11    19    20    2
    12    19     1    1
    13     1     2    2
    14     2     3    1
    15     3     4    2
    16     4     5    1
    17     5     6    1
    18     6     7    2
    19     7    10    1
    20    10    11   ar
    21    11    12   ar
    22    12    13   ar
    23    13    14   ar
    24    14    15    1
    25    14    16   ar
    26    16    17    1
    27     7     8    1
    28     8     9    2
    29    26    27    1
    30    27    28    1
    31    28    23    1
    32     9     1    1
    33     9     4    1
    34    16    10   ar
    35    18    21    1
