@<TRIPOS>MOLECULE
*****
 35 37 0 0 0
SMALL
GASTEIGER

@<TRIPOS>ATOM
      1 C         140.2117  142.4984  163.1044 C.ar    1  UNL1        0.1193
      2 C         140.4725  143.8914  162.6130 C.ar    1  UNL1        0.0136
      3 C         140.6917  145.1023  163.4708 C.3     1  UNL1        0.0340
      4 C         140.4757  143.8610  161.1134 C.ar    1  UNL1        0.0711
      5 N         140.2168  142.4491  160.6779 N.ar    1  UNL1       -0.3287
      6 C         140.0537  141.6070  161.9084 C.ar    1  UNL1        0.0546
      7 C         139.7804  140.1324  161.9378 C.3     1  UNL1        0.0514
      8 S         140.1242  142.0717  164.5398 S.O2    1  UNL1        0.0282
      9 O         138.6577  142.3867  164.5441 O.2     1  UNL1       -0.1642
     10 O         141.5908  141.7567  164.5355 O.2     1  UNL1       -0.1642
     11 C         139.8618  140.7915  168.8459 C.ar    1  UNL1        0.0348
     12 C         139.3390  139.8943  167.7635 C.ar    1  UNL1        0.0042
     13 C         139.4264  140.3210  166.3282 C.ar    1  UNL1        0.0188
     14 C         140.0368  141.6450  165.9752 C.ar    1  UNL1        0.1103
     15 C         140.5597  142.5422  167.0575 C.ar    1  UNL1        0.0188
     16 C         140.4722  142.1154  168.4929 C.ar    1  UNL1        0.0042
     17 C         140.8825  140.7043  171.2335 C.3     1  UNL1        0.0773
     18 C         139.7744  140.3648  170.2812 C.2     1  UNL1        0.1735
     19 O         138.5788  139.5986  170.7644 O.2     1  UNL1       -0.2913
     20 C         140.6986  145.0361  160.2081 C.2     1  UNL1        0.0884
     21 O         139.6444  146.0956  160.0811 O.co2   1  UNL1       -0.5431
     22 O         141.9758  145.1517  159.4300 O.co2   1  UNL1       -0.5431
     23 C         140.1354  141.9644  159.2607 C.3     1  UNL1        0.1096
     24 C         141.3888  141.6147  158.5144 C.3     1  UNL1        0.0718
     25 C         142.2276  140.4537  158.9599 C.3     1  UNL1        0.2074
     26 O         143.6562  140.6713  159.3621 O.3     1  UNL1       -0.4754
     27 C         143.9798  141.1740  160.7380 C.ar    1  UNL1        0.1380
     28 C         144.3664  140.2074  161.8179 C.ar    1  UNL1        0.0335
     29 C         144.6900  140.7099  163.1936 C.ar    1  UNL1       -0.0086
     30 C         145.0765  139.7434  164.2735 C.3     1  UNL1        0.0320
     31 C         144.6270  142.1791  163.4895 C.ar    1  UNL1        0.0499
     32 CL        144.9505  142.6817  164.8651 Cl      1  UNL1       -0.0829
     33 C         144.2404  143.1457  162.4095 C.ar    1  UNL1       -0.0086
     34 C         144.1774  144.6149  162.7053 C.3     1  UNL1        0.0320
     35 C         143.9168  142.6431  161.0338 C.ar    1  UNL1        0.0335
@<TRIPOS>UNITY_ATOM_ATTR
21 1
charge -1
@<TRIPOS>BOND
     1    17    18    1
     2    18    19    2
     3    18    11    1
     4    11    12   ar
     5    12    13   ar
     6    13    14   ar
     7    14     8    1
     8     8     9    2
     9     8    10    2
    10     8     1    1
    11     1     2   ar
    12     2     3    1
    13     2     4   ar
    14     4    20    1
    15    20    21   ar
    16    20    22   ar
    17     4     5   ar
    18     5    23    1
    19    23    24    1
    20    24    25    1
    21    25    26    1
    22    26    27    1
    23    27    28   ar
    24    28    29   ar
    25    29    30    1
    26    29    31   ar
    27    31    32    1
    28    31    33   ar
    29    33    34    1
    30    33    35   ar
    31     5     6   ar
    32     6     7    1
    33    14    15   ar
    34    15    16   ar
    35    16    11   ar
    36     6     1   ar
    37    35    27   ar
@<TRIPOS>MOLECULE
*****
 35 37 0 0 0
SMALL
GASTEIGER

@<TRIPOS>ATOM
      1 C         139.6195  141.4872  164.3256 C.ar    1  UNL1        0.1193
      2 C         138.8797  140.1823  164.3182 C.ar    1  UNL1        0.0136
      3 C         138.3076  139.4999  163.1112 C.3     1  UNL1        0.0340
      4 C         138.8125  139.6796  165.7299 C.ar    1  UNL1        0.0711
      5 N         139.5107  140.6738  166.6097 N.ar    1  UNL1       -0.3287
      6 C         140.0095  141.7909  165.7418 C.ar    1  UNL1        0.0546
      7 C         140.7655  142.9996  166.2082 C.3     1  UNL1        0.0514
      8 S         139.9171  142.3387  163.1271 S.O2    1  UNL1        0.0282
      9 O         138.5860  143.0139  163.2763 O.2     1  UNL1       -0.1642
     10 O         141.2482  141.6636  162.9779 O.2     1  UNL1       -0.1642
     11 C         140.8098  144.8934  159.5318 C.ar    1  UNL1        0.0348
     12 C         141.0924  143.4208  159.4942 C.ar    1  UNL1        0.0042
     13 C         140.7948  142.5692  160.6927 C.ar    1  UNL1        0.0188
     14 C         140.2147  143.1903  161.9287 C.ar    1  UNL1        0.1103
     15 C         139.9321  144.6629  161.9662 C.ar    1  UNL1        0.0188
     16 C         140.2297  145.5145  160.7677 C.ar    1  UNL1        0.0042
     17 C         139.9937  146.1822  157.4287 C.3     1  UNL1        0.0773
     18 C         141.1074  145.7450  158.3333 C.2     1  UNL1        0.1735
     19 O         142.5188  146.1594  158.0395 O.2     1  UNL1       -0.2913
     20 C         138.1613  138.4063  166.1823 C.2     1  UNL1        0.0884
     21 O         138.5772  137.0965  165.5811 O.co2   1  UNL1       -0.5431
     22 O         137.0942  138.4428  167.2358 O.co2   1  UNL1       -0.5431
     23 C         139.6804  140.5692  168.0964 C.3     1  UNL1        0.1096
     24 C         140.8691  139.8543  168.6672 C.3     1  UNL1        0.0718
     25 C         142.2455  140.1612  168.1559 C.3     1  UNL1        0.2074
     26 O         143.0370  139.1006  167.4498 O.3     1  UNL1       -0.4754
     27 C         143.0156  139.0211  165.9520 C.ar    1  UNL1        0.1380
     28 C         143.9700  139.8487  165.1433 C.ar    1  UNL1        0.0335
     29 C         143.9486  139.7691  163.6455 C.ar    1  UNL1       -0.0086
     30 C         144.9030  140.5967  162.8369 C.3     1  UNL1        0.0320
     31 C         142.9727  138.8620  162.9566 C.ar    1  UNL1        0.0499
     32 CL        142.9513  138.7824  161.4589 Cl      1  UNL1       -0.0829
     33 C         142.0182  138.0344  163.7653 C.ar    1  UNL1       -0.0086
     34 C         141.0424  137.1273  163.0763 C.3     1  UNL1        0.0320
     35 C         142.0397  138.1139  165.2631 C.ar    1  UNL1        0.0335
@<TRIPOS>UNITY_ATOM_ATTR
21 1
charge -1
@<TRIPOS>BOND
     1    17    18    1
     2    18    19    2
     3    18    11    1
     4    11    12   ar
     5    12    13   ar
     6    13    14   ar
     7    14     8    1
     8     8     9    2
     9     8    10    2
    10     8     1    1
    11     1     2   ar
    12     2     3    1
    13     2     4   ar
    14     4    20    1
    15    20    21   ar
    16    20    22   ar
    17     4     5   ar
    18     5    23    1
    19    23    24    1
    20    24    25    1
    21    25    26    1
    22    26    27    1
    23    27    28   ar
    24    28    29   ar
    25    29    30    1
    26    29    31   ar
    27    31    32    1
    28    31    33   ar
    29    33    34    1
    30    33    35   ar
    31     5     6   ar
    32     6     7    1
    33    14    15   ar
    34    15    16   ar
    35    16    11   ar
    36     6     1   ar
    37    35    27   ar
@<TRIPOS>MOLECULE
*****
 35 37 0 0 0
SMALL
GASTEIGER

@<TRIPOS>ATOM
      1 C         141.2508  139.8450  162.8494 C.ar    1  UNL1        0.1193
      2 C         142.3660  139.1721  162.1055 C.ar    1  UNL1        0.0136
      3 C         143.5240  138.4446  162.7219 C.3     1  UNL1        0.0340
      4 C         142.1201  139.3544  160.6371 C.ar    1  UNL1        0.0711
      5 N         140.8528  140.1401  160.4734 N.ar    1  UNL1       -0.3287
      6 C         140.3155  140.4432  161.8407 C.ar    1  UNL1        0.0546
      7 C         139.0629  141.2100  162.1457 C.3     1  UNL1        0.0514
      8 S         141.0976  139.9085  164.3402 S.O2    1  UNL1        0.0282
      9 O         141.8307  141.2170  164.3598 O.2     1  UNL1       -0.1642
     10 O         140.3645  138.6000  164.3207 O.2     1  UNL1       -0.1642
     11 C         140.6381  140.0991  168.8127 C.ar    1  UNL1        0.0348
     12 C         139.4251  139.9789  167.9385 C.ar    1  UNL1        0.0042
     13 C         139.5783  139.9154  166.4477 C.ar    1  UNL1        0.0188
     14 C         140.9444  139.9721  165.8310 C.ar    1  UNL1        0.1103
     15 C         142.1574  140.0923  166.7052 C.ar    1  UNL1        0.0188
     16 C         142.0043  140.1558  168.1960 C.ar    1  UNL1        0.0042
     17 C         141.5354  140.8344  171.1374 C.3     1  UNL1        0.0773
     18 C         140.4850  140.1627  170.3035 C.2     1  UNL1        0.1735
     19 O         139.2815  139.5545  170.9604 O.2     1  UNL1       -0.2913
     20 C         142.9889  138.8413  159.5272 C.2     1  UNL1        0.0884
     21 O         142.6902  137.5152  158.8929 O.co2   1  UNL1       -0.5431
     22 O         144.1564  139.6541  159.0518 O.co2   1  UNL1       -0.5431
     23 C         140.2318  140.5505  159.1712 C.3     1  UNL1        0.1096
     24 C         140.8403  141.6609  158.3670 C.3     1  UNL1        0.0718
     25 C         141.5264  142.8002  159.0606 C.3     1  UNL1        0.2074
     26 O         142.9553  142.6621  159.4959 O.3     1  UNL1       -0.4754
     27 C         143.3367  142.9462  160.9185 C.ar    1  UNL1        0.1380
     28 C         144.4223  142.1480  161.5776 C.ar    1  UNL1        0.0335
     29 C         144.8038  142.4320  163.0002 C.ar    1  UNL1       -0.0086
     30 C         145.8893  141.6339  163.6593 C.3     1  UNL1        0.0320
     31 C         144.0996  143.5142  163.7637 C.ar    1  UNL1        0.0499
     32 CL        144.4810  143.7983  165.1863 Cl      1  UNL1       -0.0829
     33 C         143.0140  144.3124  163.1046 C.ar    1  UNL1       -0.0086
     34 C         142.3098  145.3946  163.8681 C.3     1  UNL1        0.0320
     35 C         142.6325  144.0284  161.6820 C.ar    1  UNL1        0.0335
@<TRIPOS>UNITY_ATOM_ATTR
21 1
charge -1
@<TRIPOS>BOND
     1    17    18    1
     2    18    19    2
     3    18    11    1
     4    11    12   ar
     5    12    13   ar
     6    13    14   ar
     7    14     8    1
     8     8     9    2
     9     8    10    2
    10     8     1    1
    11     1     2   ar
    12     2     3    1
    13     2     4   ar
    14     4    20    1
    15    20    21   ar
    16    20    22   ar
    17     4     5   ar
    18     5    23    1
    19    23    24    1
    20    24    25    1
    21    25    26    1
    22    26    27    1
    23    27    28   ar
    24    28    29   ar
    25    29    30    1
    26    29    31   ar
    27    31    32    1
    28    31    33   ar
    29    33    34    1
    30    33    35   ar
    31     5     6   ar
    32     6     7    1
    33    14    15   ar
    34    15    16   ar
    35    16    11   ar
    36     6     1   ar
    37    35    27   ar
@<TRIPOS>MOLECULE
*****
 35 37 0 0 0
SMALL
GASTEIGER

@<TRIPOS>ATOM
      1 C         141.0896  139.9880  162.4833 C.ar    1  UNL1        0.1193
      2 C         142.2458  139.2578  161.8667 C.ar    1  UNL1        0.0136
      3 C         143.2898  138.4749  162.6064 C.3     1  UNL1        0.0340
      4 C         142.1746  139.4478  160.3805 C.ar    1  UNL1        0.0711
      5 N         140.9745  140.2955  160.0785 N.ar    1  UNL1       -0.3287
      6 C         140.3040  140.6293  161.3781 C.ar    1  UNL1        0.0546
      7 C         139.0652  141.4588  161.5435 C.3     1  UNL1        0.0514
      8 S         140.7745  140.0636  163.9479 S.O2    1  UNL1        0.0282
      9 O         139.9561  138.8115  163.8364 O.2     1  UNL1       -0.1642
     10 O         141.5930  141.3156  164.0593 O.2     1  UNL1       -0.1642
     11 C         139.8292  140.2903  168.3416 C.ar    1  UNL1        0.0348
     12 C         138.9284  139.5238  167.4192 C.ar    1  UNL1        0.0042
     13 C         139.2435  139.4483  165.9546 C.ar    1  UNL1        0.0188
     14 C         140.4594  140.1391  165.4124 C.ar    1  UNL1        0.1103
     15 C         141.3603  140.9056  166.3348 C.ar    1  UNL1        0.0188
     16 C         141.0452  140.9812  167.7994 C.ar    1  UNL1        0.0042
     17 C         140.5443  140.8762  170.7696 C.3     1  UNL1        0.0773
     18 C         139.5142  140.3659  169.8062 C.2     1  UNL1        0.1735
     19 O         138.1689  139.9312  170.3073 O.2     1  UNL1       -0.2913
     20 C         143.1349  138.8884  159.3731 C.2     1  UNL1        0.0884
     21 O         143.0769  137.4346  159.0083 O.co2   1  UNL1       -0.5431
     22 O         144.1533  139.7828  158.7305 O.co2   1  UNL1       -0.5431
     23 C         140.5240  140.7326  158.7162 C.3     1  UNL1        0.1096
     24 C         141.1546  141.9279  158.0653 C.3     1  UNL1        0.0718
     25 C         141.8161  142.9784  158.9072 C.3     1  UNL1        0.2074
     26 O         143.2035  142.7551  159.4318 O.3     1  UNL1       -0.4754
     27 C         143.5035  142.9897  160.8827 C.ar    1  UNL1        0.1380
     28 C         142.7621  144.0515  161.6397 C.ar    1  UNL1        0.0335
     29 C         143.0621  144.2862  163.0906 C.ar    1  UNL1       -0.0086
     30 C         142.3207  145.3479  163.8475 C.3     1  UNL1        0.0320
     31 C         144.1034  143.4590  163.7844 C.ar    1  UNL1        0.0499
     32 CL        144.4034  143.6936  165.2352 Cl      1  UNL1       -0.0829
     33 C         144.8448  142.3973  163.0274 C.ar    1  UNL1       -0.0086
     34 C         145.8861  141.5701  163.7213 C.3     1  UNL1        0.0320
     35 C         144.5448  142.1626  161.5766 C.ar    1  UNL1        0.0335
@<TRIPOS>UNITY_ATOM_ATTR
21 1
charge -1
@<TRIPOS>BOND
     1    17    18    1
     2    18    19    2
     3    18    11    1
     4    11    12   ar
     5    12    13   ar
     6    13    14   ar
     7    14     8    1
     8     8     9    2
     9     8    10    2
    10     8     1    1
    11     1     2   ar
    12     2     3    1
    13     2     4   ar
    14     4    20    1
    15    20    21   ar
    16    20    22   ar
    17     4     5   ar
    18     5    23    1
    19    23    24    1
    20    24    25    1
    21    25    26    1
    22    26    27    1
    23    27    28   ar
    24    28    29   ar
    25    29    30    1
    26    29    31   ar
    27    31    32    1
    28    31    33   ar
    29    33    34    1
    30    33    35   ar
    31     5     6   ar
    32     6     7    1
    33    14    15   ar
    34    15    16   ar
    35    16    11   ar
    36     6     1   ar
    37    35    27   ar
@<TRIPOS>MOLECULE
*****
 35 37 0 0 0
SMALL
GASTEIGER

@<TRIPOS>ATOM
      1 C         139.9126  140.9625  163.1607 C.ar    1  UNL1        0.1193
      2 C         138.8228  141.4579  162.2570 C.ar    1  UNL1        0.0136
      3 C         137.6116  142.2352  162.6803 C.3     1  UNL1        0.0340
      4 C         139.1566  141.0397  160.8557 C.ar    1  UNL1        0.0711
      5 N         140.4528  140.2858  160.8933 N.ar    1  UNL1       -0.3287
      6 C         140.9200  140.2381  162.3179 C.ar    1  UNL1        0.0546
      7 C         142.1745  139.5813  162.8128 C.3     1  UNL1        0.0514
      8 S         139.9828  141.1573  164.6464 S.O2    1  UNL1        0.0282
      9 O         140.7767  142.4138  164.4442 O.2     1  UNL1       -0.1642
     10 O         139.1889  139.9008  164.8486 O.2     1  UNL1       -0.1642
     11 C         140.1933  141.7416  169.1033 C.ar    1  UNL1        0.0348
     12 C         139.8072  140.4064  168.5394 C.ar    1  UNL1        0.0042
     13 C         139.7370  140.2116  167.0537 C.ar    1  UNL1        0.0188
     14 C         140.0530  141.3520  166.1320 C.ar    1  UNL1        0.1103
     15 C         140.4391  142.6872  166.6960 C.ar    1  UNL1        0.0188
     16 C         140.5093  142.8820  168.1816 C.ar    1  UNL1        0.0042
     17 C         141.0950  141.0120  171.4281 C.3     1  UNL1        0.0773
     18 C         140.2635  141.9363  170.5890 C.2     1  UNL1        0.1735
     19 O         139.5021  143.0554  171.2355 O.2     1  UNL1       -0.2913
     20 C         138.3379  141.3253  159.6317 C.2     1  UNL1        0.0884
     21 O         137.6745  140.2004  158.8938 O.co2   1  UNL1       -0.5431
     22 O         138.1826  142.7358  159.1456 O.co2   1  UNL1       -0.5431
     23 C         141.1579  139.6851  159.7136 C.3     1  UNL1        0.1096
     24 C         142.0874  140.5246  158.8880 C.3     1  UNL1        0.0718
     25 C         142.0689  142.0183  159.0236 C.3     1  UNL1        0.2074
     26 O         143.3108  142.7488  159.4410 O.3     1  UNL1       -0.4754
     27 C         143.5898  142.9831  160.8962 C.ar    1  UNL1        0.1380
     28 C         144.5987  142.1350  161.6124 C.ar    1  UNL1        0.0335
     29 C         144.8777  142.3693  163.0675 C.ar    1  UNL1       -0.0086
     30 C         145.8865  141.5213  163.7836 C.3     1  UNL1        0.0320
     31 C         144.1478  143.4515  163.8063 C.ar    1  UNL1        0.0499
     32 CL        144.4267  143.6858  165.2614 Cl      1  UNL1       -0.0829
     33 C         143.1389  144.2996  163.0901 C.ar    1  UNL1       -0.0086
     34 C         142.4090  145.3818  163.8290 C.3     1  UNL1        0.0320
     35 C         142.8599  144.0653  161.6350 C.ar    1  UNL1        0.0335
@<TRIPOS>UNITY_ATOM_ATTR
21 1
charge -1
@<TRIPOS>BOND
     1    17    18    1
     2    18    19    2
     3    18    11    1
     4    11    12   ar
     5    12    13   ar
     6    13    14   ar
     7    14     8    1
     8     8     9    2
     9     8    10    2
    10     8     1    1
    11     1     2   ar
    12     2     3    1
    13     2     4   ar
    14     4    20    1
    15    20    21   ar
    16    20    22   ar
    17     4     5   ar
    18     5    23    1
    19    23    24    1
    20    24    25    1
    21    25    26    1
    22    26    27    1
    23    27    28   ar
    24    28    29   ar
    25    29    30    1
    26    29    31   ar
    27    31    32    1
    28    31    33   ar
    29    33    34    1
    30    33    35   ar
    31     5     6   ar
    32     6     7    1
    33    14    15   ar
    34    15    16   ar
    35    16    11   ar
    36     6     1   ar
    37    35    27   ar
@<TRIPOS>MOLECULE
*****
 35 37 0 0 0
SMALL
GASTEIGER

@<TRIPOS>ATOM
      1 C         139.7578  142.5709  163.1927 C.ar    1  UNL1        0.1193
      2 C         140.6187  143.5984  162.5196 C.ar    1  UNL1        0.0136
      3 C         141.7038  144.4033  163.1712 C.3     1  UNL1        0.0340
      4 C         140.2040  143.6796  161.0803 C.ar    1  UNL1        0.0711
      5 N         139.0868  142.7024  160.8640 N.ar    1  UNL1       -0.3287
      6 C         138.8110  142.0172  162.1695 C.ar    1  UNL1        0.0546
      7 C         137.7710  140.9632  162.4096 C.3     1  UNL1        0.0514
      8 S         139.8308  142.1679  164.6358 S.O2    1  UNL1        0.0282
      9 O         138.8140  143.2157  164.9798 O.2     1  UNL1       -0.1642
     10 O         140.8476  141.1202  164.2917 O.2     1  UNL1       -0.1642
     11 C         140.0499  140.9590  168.9648 C.ar    1  UNL1        0.0348
     12 C         139.4912  140.0083  167.9480 C.ar    1  UNL1        0.0042
     13 C         139.4182  140.4113  166.5049 C.ar    1  UNL1        0.0188
     14 C         139.9038  141.7650  166.0788 C.ar    1  UNL1        0.1103
     15 C         140.4625  142.7157  167.0956 C.ar    1  UNL1        0.0188
     16 C         140.5355  142.3127  168.5386 C.ar    1  UNL1        0.0042
     17 C         141.1841  141.1355  171.2955 C.3     1  UNL1        0.0773
     18 C         140.1230  140.5561  170.4078 C.2     1  UNL1        0.1735
     19 O         139.1348  139.5737  170.9631 O.2     1  UNL1       -0.2913
     20 C         140.8016  144.5801  160.0401 C.2     1  UNL1        0.0884
     21 O         142.2464  144.4357  159.6636 O.co2   1  UNL1       -0.5431
     22 O         139.9544  145.6249  159.3763 O.co2   1  UNL1       -0.5431
     23 C         138.3710  142.4539  159.5694 C.3     1  UNL1        0.1096
     24 C         138.1927  141.0515  159.0681 C.3     1  UNL1        0.0718
     25 C         139.3852  140.1567  158.9033 C.3     1  UNL1        0.2074
     26 O         139.3551  138.7593  159.4476 O.3     1  UNL1       -0.4754
     27 C         139.9944  138.4557  160.7703 C.ar    1  UNL1        0.1380
     28 C         139.1435  138.0671  161.9429 C.ar    1  UNL1        0.0335
     29 C         139.7827  137.7635  163.2655 C.ar    1  UNL1       -0.0086
     30 C         138.9318  137.3749  164.4381 C.3     1  UNL1        0.0320
     31 C         141.2727  137.8486  163.4155 C.ar    1  UNL1        0.0499
     32 CL        141.9119  137.5450  164.7381 Cl      1  UNL1       -0.0829
     33 C         142.1236  138.2372  162.2429 C.ar    1  UNL1       -0.0086
     34 C         143.6136  138.3223  162.3929 C.3     1  UNL1        0.0320
     35 C         141.4844  138.5408  160.9203 C.ar    1  UNL1        0.0335
@<TRIPOS>UNITY_ATOM_ATTR
21 1
charge -1
@<TRIPOS>BOND
     1    17    18    1
     2    18    19    2
     3    18    11    1
     4    11    12   ar
     5    12    13   ar
     6    13    14   ar
     7    14     8    1
     8     8     9    2
     9     8    10    2
    10     8     1    1
    11     1     2   ar
    12     2     3    1
    13     2     4   ar
    14     4    20    1
    15    20    21   ar
    16    20    22   ar
    17     4     5   ar
    18     5    23    1
    19    23    24    1
    20    24    25    1
    21    25    26    1
    22    26    27    1
    23    27    28   ar
    24    28    29   ar
    25    29    30    1
    26    29    31   ar
    27    31    32    1
    28    31    33   ar
    29    33    34    1
    30    33    35   ar
    31     5     6   ar
    32     6     7    1
    33    14    15   ar
    34    15    16   ar
    35    16    11   ar
    36     6     1   ar
    37    35    27   ar
@<TRIPOS>MOLECULE
*****
 35 37 0 0 0
SMALL
GASTEIGER

@<TRIPOS>ATOM
      1 C         139.8639  142.7696  163.4209 C.ar    1  UNL1        0.1193
      2 C         140.4437  144.0385  162.8698 C.ar    1  UNL1        0.0136
      3 C         141.1970  145.0752  163.6494 C.3     1  UNL1        0.0340
      4 C         140.1380  144.0888  161.4021 C.ar    1  UNL1        0.0711
      5 N         139.3692  142.8509  161.0462 N.ar    1  UNL1       -0.3287
      6 C         139.1998  142.0357  162.2939 C.ar    1  UNL1        0.0546
      7 C         138.4908  140.7178  162.3965 C.3     1  UNL1        0.0514
      8 S         139.9356  142.3146  164.8485 S.O2    1  UNL1        0.0282
      9 O         141.3067  141.7583  164.6023 O.2     1  UNL1       -0.1642
     10 O         138.5645  142.8710  165.0947 O.2     1  UNL1       -0.1642
     11 C         140.1506  140.9497  169.1311 C.ar    1  UNL1        0.0348
     12 C         140.6107  142.3281  168.7592 C.ar    1  UNL1        0.0042
     13 C         140.5390  142.7831  167.3317 C.ar    1  UNL1        0.0188
     14 C         140.0073  141.8597  166.2760 C.ar    1  UNL1        0.1103
     15 C         139.5472  140.4812  166.6478 C.ar    1  UNL1        0.0188
     16 C         139.6189  140.0263  168.0754 C.ar    1  UNL1        0.0042
     17 C         141.2964  141.0246  171.4616 C.3     1  UNL1        0.0773
     18 C         140.2223  140.4947  170.5586 C.2     1  UNL1        0.1735
     19 O         139.2200  139.5097  171.0831 O.2     1  UNL1       -0.2913
     20 C         140.5319  145.1845  160.4565 C.2     1  UNL1        0.0884
     21 O         141.8568  145.1299  159.7554 O.co2   1  UNL1       -0.5431
     22 O         139.6008  146.3348  160.2119 O.co2   1  UNL1       -0.5431
     23 C         138.8593  142.4914  159.6821 C.3     1  UNL1        0.1096
     24 C         139.8080  141.9859  158.6360 C.3     1  UNL1        0.0718
     25 C         140.9771  141.1340  159.0326 C.3     1  UNL1        0.2074
     26 O         142.1614  141.7551  159.7120 O.3     1  UNL1       -0.4754
     27 C         142.7327  141.1254  160.9478 C.ar    1  UNL1        0.1380
     28 C         142.1334  139.8623  161.4915 C.ar    1  UNL1        0.0335
     29 C         142.7046  139.2326  162.7273 C.ar    1  UNL1       -0.0086
     30 C         142.1054  137.9696  163.2710 C.3     1  UNL1        0.0320
     31 C         143.8750  139.8659  163.4194 C.ar    1  UNL1        0.0499
     32 CL        144.4462  139.2363  164.6552 Cl      1  UNL1       -0.0829
     33 C         144.4742  141.1290  162.8757 C.ar    1  UNL1       -0.0086
     34 C         145.6446  141.7624  163.5678 C.3     1  UNL1        0.0320
     35 C         143.9030  141.7587  161.6399 C.ar    1  UNL1        0.0335
@<TRIPOS>UNITY_ATOM_ATTR
21 1
charge -1
@<TRIPOS>BOND
     1    17    18    1
     2    18    19    2
     3    18    11    1
     4    11    12   ar
     5    12    13   ar
     6    13    14   ar
     7    14     8    1
     8     8     9    2
     9     8    10    2
    10     8     1    1
    11     1     2   ar
    12     2     3    1
    13     2     4   ar
    14     4    20    1
    15    20    21   ar
    16    20    22   ar
    17     4     5   ar
    18     5    23    1
    19    23    24    1
    20    24    25    1
    21    25    26    1
    22    26    27    1
    23    27    28   ar
    24    28    29   ar
    25    29    30    1
    26    29    31   ar
    27    31    32    1
    28    31    33   ar
    29    33    34    1
    30    33    35   ar
    31     5     6   ar
    32     6     7    1
    33    14    15   ar
    34    15    16   ar
    35    16    11   ar
    36     6     1   ar
    37    35    27   ar
@<TRIPOS>MOLECULE
*****
 35 37 0 0 0
SMALL
GASTEIGER

@<TRIPOS>ATOM
      1 C         140.9347  142.8635  162.9981 C.ar    1  UNL1        0.1193
      2 C         141.8652  143.4351  161.9698 C.ar    1  UNL1        0.0136
      3 C         143.2240  144.0128  162.2344 C.3     1  UNL1        0.0340
      4 C         141.1984  143.3277  160.6304 C.ar    1  UNL1        0.0711
      5 N         139.8558  142.6897  160.8309 N.ar    1  UNL1       -0.3287
      6 C         139.6928  142.4028  162.2942 C.ar    1  UNL1        0.0546
      7 C         138.4977  141.7668  162.9402 C.3     1  UNL1        0.0514
      8 S         141.1996  142.7691  164.4715 S.O2    1  UNL1        0.0282
      9 O         141.8183  141.4171  164.2737 O.2     1  UNL1       -0.1642
     10 O         140.5808  144.1212  164.6693 O.2     1  UNL1       -0.1642
     11 C         141.9942  142.4861  168.8917 C.ar    1  UNL1        0.0348
     12 C         140.6152  142.8071  168.3966 C.ar    1  UNL1        0.0042
     13 C         140.3503  142.9015  166.9232 C.ar    1  UNL1        0.0188
     14 C         141.4645  142.6748  165.9449 C.ar    1  UNL1        0.1103
     15 C         142.8435  142.3537  166.4400 C.ar    1  UNL1        0.0188
     16 C         143.1084  142.2594  167.9134 C.ar    1  UNL1        0.0042
     17 C         141.8791  141.1510  171.1175 C.3     1  UNL1        0.0773
     18 C         142.2591  142.3917  170.3651 C.2     1  UNL1        0.1735
     19 O         142.9039  143.5381  171.0861 O.2     1  UNL1       -0.2913
     20 C         141.7734  143.7791  159.3206 C.2     1  UNL1        0.0884
     21 O         142.0666  142.7759  158.2447 O.co2   1  UNL1       -0.5431
     22 O         142.0550  145.2337  159.0866 O.co2   1  UNL1       -0.5431
     23 C         138.8523  142.3910  159.7568 C.3     1  UNL1        0.1096
     24 C         138.8614  141.0564  159.0720 C.3     1  UNL1        0.0718
     25 C         138.2055  139.8750  159.7231 C.3     1  UNL1        0.2074
     26 O         138.9841  138.6119  159.9433 O.3     1  UNL1       -0.4754
     27 C         139.7287  138.4043  161.2289 C.ar    1  UNL1        0.1380
     28 C         141.2242  138.5178  161.2561 C.ar    1  UNL1        0.0335
     29 C         141.9688  138.3102  162.5416 C.ar    1  UNL1       -0.0086
     30 C         143.4642  138.4237  162.5688 C.3     1  UNL1        0.0320
     31 C         141.2179  137.9892  163.7998 C.ar    1  UNL1        0.0499
     32 CL        141.9625  137.7816  165.0853 Cl      1  UNL1       -0.0829
     33 C         139.7225  137.8757  163.7725 C.ar    1  UNL1       -0.0086
     34 C         138.9716  137.5547  165.0308 C.3     1  UNL1        0.0320
     35 C         138.9778  138.0833  162.4871 C.ar    1  UNL1        0.0335
@<TRIPOS>UNITY_ATOM_ATTR
21 1
charge -1
@<TRIPOS>BOND
     1    17    18    1
     2    18    19    2
     3    18    11    1
     4    11    12   ar
     5    12    13   ar
     6    13    14   ar
     7    14     8    1
     8     8     9    2
     9     8    10    2
    10     8     1    1
    11     1     2   ar
    12     2     3    1
    13     2     4   ar
    14     4    20    1
    15    20    21   ar
    16    20    22   ar
    17     4     5   ar
    18     5    23    1
    19    23    24    1
    20    24    25    1
    21    25    26    1
    22    26    27    1
    23    27    28   ar
    24    28    29   ar
    25    29    30    1
    26    29    31   ar
    27    31    32    1
    28    31    33   ar
    29    33    34    1
    30    33    35   ar
    31     5     6   ar
    32     6     7    1
    33    14    15   ar
    34    15    16   ar
    35    16    11   ar
    36     6     1   ar
    37    35    27   ar
@<TRIPOS>MOLECULE
*****
 35 37 0 0 0
SMALL
GASTEIGER

@<TRIPOS>ATOM
      1 C         141.0415  139.3893  162.9365 C.ar    1  UNL1        0.1193
      2 C         142.2294  139.7392  162.0901 C.ar    1  UNL1        0.0136
      3 C         143.5319  140.2947  162.5851 C.3     1  UNL1        0.0340
      4 C         141.8863  139.4360  160.6617 C.ar    1  UNL1        0.0711
      5 N         140.4862  138.8988  160.6253 N.ar    1  UNL1       -0.3287
      6 C         139.9642  138.8699  162.0312 C.ar    1  UNL1        0.0546
      7 C         138.6036  138.4035  162.4571 C.3     1  UNL1        0.0514
      8 S         140.9475  139.5335  164.4266 S.O2    1  UNL1        0.0282
      9 O         140.4072  140.9226  164.2581 O.2     1  UNL1       -0.1642
     10 O         141.4878  138.1443  164.5951 O.2     1  UNL1       -0.1642
     11 C         140.6654  139.9660  168.8969 C.ar    1  UNL1        0.0348
     12 C         139.4174  139.9462  168.0651 C.ar    1  UNL1        0.0042
     13 C         139.5114  139.8021  166.5750 C.ar    1  UNL1        0.0188
     14 C         140.8535  139.6776  165.9167 C.ar    1  UNL1        0.1103
     15 C         142.1015  139.6973  166.7486 C.ar    1  UNL1        0.0188
     16 C         142.0075  139.8415  168.2386 C.ar    1  UNL1        0.0042
     17 C         141.6321  140.8606  171.1363 C.3     1  UNL1        0.0773
     18 C         140.5714  140.1101  170.3870 C.2     1  UNL1        0.1735
     19 O         139.4166  139.5038  171.1278 O.2     1  UNL1       -0.2913
     20 C         142.7853  139.6352  159.4776 C.2     1  UNL1        0.0884
     21 O         143.1407  141.0223  159.0306 O.co2   1  UNL1       -0.5431
     22 O         143.3289  138.4473  158.7405 O.co2   1  UNL1       -0.5431
     23 C         139.7394  138.4664  159.3984 C.3     1  UNL1        0.1096
     24 C         139.0688  139.4887  158.5293 C.3     1  UNL1        0.0718
     25 C         139.0530  140.9304  158.9430 C.3     1  UNL1        0.2074
     26 O         138.2479  141.3603  160.1333 O.3     1  UNL1       -0.4754
     27 C         138.8483  142.2850  161.1505 C.ar    1  UNL1        0.1380
     28 C         140.2702  142.7395  161.0040 C.ar    1  UNL1        0.0335
     29 C         140.8706  143.6642  162.0212 C.ar    1  UNL1       -0.0086
     30 C         142.2925  144.1187  161.8747 C.3     1  UNL1        0.0320
     31 C         140.0491  144.1343  163.1848 C.ar    1  UNL1        0.0499
     32 CL        140.6494  145.0589  164.2019 Cl      1  UNL1       -0.0829
     33 C         138.6271  143.6797  163.3313 C.ar    1  UNL1       -0.0086
     34 C         137.8055  144.1498  164.4949 C.3     1  UNL1        0.0320
     35 C         138.0267  142.7551  162.3141 C.ar    1  UNL1        0.0335
@<TRIPOS>UNITY_ATOM_ATTR
21 1
charge -1
@<TRIPOS>BOND
     1    17    18    1
     2    18    19    2
     3    18    11    1
     4    11    12   ar
     5    12    13   ar
     6    13    14   ar
     7    14     8    1
     8     8     9    2
     9     8    10    2
    10     8     1    1
    11     1     2   ar
    12     2     3    1
    13     2     4   ar
    14     4    20    1
    15    20    21   ar
    16    20    22   ar
    17     4     5   ar
    18     5    23    1
    19    23    24    1
    20    24    25    1
    21    25    26    1
    22    26    27    1
    23    27    28   ar
    24    28    29   ar
    25    29    30    1
    26    29    31   ar
    27    31    32    1
    28    31    33   ar
    29    33    34    1
    30    33    35   ar
    31     5     6   ar
    32     6     7    1
    33    14    15   ar
    34    15    16   ar
    35    16    11   ar
    36     6     1   ar
    37    35    27   ar
