@<TRIPOS>MOLECULE
*****
 28 32 0 0 0
SMALL
GASTEIGER

@<TRIPOS>ATOM
      1 N         139.1258  146.1878  161.4005 N.pl3   1  UNL1       -0.3380
      2 C         139.5850  145.3495  162.5565 C.2     1  UNL1        0.1485
      3 N         141.0491  145.1012  162.7681 N.2     1  UNL1       -0.2453
      4 C         141.5083  144.2628  163.9240 C.3     1  UNL1        0.1677
      5 C         141.9675  143.4245  165.0801 C.ar    1  UNL1        0.0371
      6 C         140.9626  142.8344  166.0245 C.ar    1  UNL1        0.0008
      7 C         141.4217  141.9961  167.1805 C.ar    1  UNL1        0.0029
      8 C         142.8858  141.7478  167.3921 C.ar    1  UNL1        0.0032
      9 C         143.8908  142.3379  166.4476 C.ar    1  UNL1        0.0366
     10 C         143.4316  143.1762  165.2916 C.ar    1  UNL1        0.1364
     11 O         144.4365  143.7663  164.3472 O.3     1  UNL1       -0.4756
     12 C         143.9773  144.6046  163.1912 C.3     1  UNL1        0.2075
     13 C         142.5132  144.8529  162.9796 C.3     1  UNL1        0.0681
     14 C         142.1092  144.7969  163.0996 C.3     1  UNL1        0.0061
     15 C         142.9174  144.9088  162.8597 C.3     1  UNL1        0.0061
     16 C         140.5034  143.6728  164.8685 C.3     1  UNL1        0.2960
     17 F         141.5409  143.0058  165.7220 F       1  UNL1       -0.2010
     18 F         139.9388  142.9037  166.0260 F       1  UNL1       -0.2010
     19 C         139.0393  143.9210  164.6569 C.3     1  UNL1        0.1335
     20 S         138.5801  144.7594  163.5009 S.3     1  UNL1       -0.0750
     21 H         139.7854  146.5751  160.7806 H       1  UNL1        0.1442
     22 H         138.1649  146.3507  161.2617 H       1  UNL1        0.1442
     23 C         140.4168  141.4060  168.1249 C.ar    1  UNL1        0.0384
     24 C         140.1212  142.0881  169.4278 C.ar    1  UNL1        0.1022
     25 N         139.1163  141.4980  170.3722 N.ar    1  UNL1       -0.2224
     26 C         138.4069  140.2259  170.0138 C.ar    1  UNL1        0.1989
     27 N         138.7025  139.5438  168.7109 N.ar    1  UNL1       -0.2224
     28 C         139.7075  140.1339  167.7665 C.ar    1  UNL1        0.1022
@<TRIPOS>BOND
     1     1     2    1
     2     2     3    2
     3     3     4    1
     4     4     5    1
     5     5     6   ar
     6     6     7   ar
     7     7    23    1
     8    23    24   ar
     9    24    25   ar
    10    25    26   ar
    11    26    27   ar
    12    27    28   ar
    13     7     8   ar
    14     8     9   ar
    15     9    10   ar
    16    10    11    1
    17    11    12    1
    18    12    13    1
    19    13    14    1
    20    14    15    1
    21     4    16    1
    22    16    17    1
    23    16    18    1
    24    16    19    1
    25    19    20    1
    26    20     2    1
    27    13     4    1
    28    10     5   ar
    29    15    13    1
    30    28    23   ar
    31     1    21    1
    32     1    22    1
@<TRIPOS>MOLECULE
*****
 28 32 0 0 0
SMALL
GASTEIGER

@<TRIPOS>ATOM
      1 N         139.2407  146.5985  161.5174 N.pl3   1  UNL1       -0.3380
      2 C         139.5592  145.4263  162.3974 C.2     1  UNL1        0.1485
      3 N         140.9331  145.2780  162.9809 N.2     1  UNL1       -0.2453
      4 C         141.2516  144.1058  163.8609 C.3     1  UNL1        0.1677
      5 C         141.5701  142.9335  164.7409 C.ar    1  UNL1        0.0371
      6 C         140.5147  141.9096  165.0374 C.ar    1  UNL1        0.0008
      7 C         140.8332  140.7373  165.9175 C.ar    1  UNL1        0.0029
      8 C         142.2071  140.5890  166.5010 C.ar    1  UNL1        0.0032
      9 C         143.2625  141.6129  166.2045 C.ar    1  UNL1        0.0366
     10 C         142.9439  142.7851  165.3245 C.ar    1  UNL1        0.1364
     11 O         143.9993  143.8091  165.0279 O.3     1  UNL1       -0.4756
     12 C         143.6808  144.9813  164.1479 C.3     1  UNL1        0.2075
     13 C         142.3069  145.1296  163.5644 C.3     1  UNL1        0.0681
     14 C         141.9094  144.9863  163.5175 C.3     1  UNL1        0.0061
     15 C         142.7045  145.2729  163.6114 C.3     1  UNL1        0.0061
     16 C         140.1962  143.0818  164.1574 C.3     1  UNL1        0.2960
     17 F         141.0972  142.2498  165.0210 F       1  UNL1       -0.2010
     18 F         139.5387  141.8589  164.7250 F       1  UNL1       -0.2010
     19 C         138.8224  143.2302  163.5739 C.3     1  UNL1        0.1335
     20 S         138.5039  144.4024  162.6938 S.3     1  UNL1       -0.0750
     21 H         139.9333  147.2705  161.3228 H       1  UNL1        0.1442
     22 H         138.3390  146.6958  161.1344 H       1  UNL1        0.1442
     23 C         139.7779  139.7135  166.2139 C.ar    1  UNL1        0.0384
     24 C         139.5141  138.6044  165.2391 C.ar    1  UNL1        0.1022
     25 N         138.4587  137.5805  165.5356 N.ar    1  UNL1       -0.2224
     26 C         137.6671  137.6658  166.8069 C.ar    1  UNL1        0.1989
     27 N         137.9310  138.7749  167.7817 N.ar    1  UNL1       -0.2224
     28 C         138.9864  139.7988  167.4852 C.ar    1  UNL1        0.1022
@<TRIPOS>BOND
     1     1     2    1
     2     2     3    2
     3     3     4    1
     4     4     5    1
     5     5     6   ar
     6     6     7   ar
     7     7    23    1
     8    23    24   ar
     9    24    25   ar
    10    25    26   ar
    11    26    27   ar
    12    27    28   ar
    13     7     8   ar
    14     8     9   ar
    15     9    10   ar
    16    10    11    1
    17    11    12    1
    18    12    13    1
    19    13    14    1
    20    14    15    1
    21     4    16    1
    22    16    17    1
    23    16    18    1
    24    16    19    1
    25    19    20    1
    26    20     2    1
    27    13     4    1
    28    10     5   ar
    29    15    13    1
    30    28    23   ar
    31     1    21    1
    32     1    22    1
@<TRIPOS>MOLECULE
*****
 28 32 0 0 0
SMALL
GASTEIGER

@<TRIPOS>ATOM
      1 N         139.6014  145.8228  160.6937 N.pl3   1  UNL1       -0.3380
      2 C         139.7362  145.0093  161.9466 C.2     1  UNL1        0.1485
      3 N         139.0023  143.7078  162.0785 N.2     1  UNL1       -0.2453
      4 C         139.1371  142.8943  163.3314 C.3     1  UNL1        0.1677
      5 C         139.2719  142.0808  164.5845 C.ar    1  UNL1        0.0371
      6 C         140.1407  142.5688  165.7057 C.ar    1  UNL1        0.0008
      7 C         140.2755  141.7553  166.9587 C.ar    1  UNL1        0.0029
      8 C         139.5416  140.4537  167.0905 C.ar    1  UNL1        0.0032
      9 C         138.6728  139.9657  165.9693 C.ar    1  UNL1        0.0366
     10 C         138.5380  140.7792  164.7163 C.ar    1  UNL1        0.1364
     11 O         137.6692  140.2912  163.5951 O.3     1  UNL1       -0.4756
     12 C         137.5344  141.1047  162.3421 C.3     1  UNL1        0.2075
     13 C         138.2683  142.4062  162.2103 C.3     1  UNL1        0.0681
     14 C         138.5306  142.6991  162.3722 C.3     1  UNL1        0.0061
     15 C         138.0060  142.1133  162.0484 C.3     1  UNL1        0.0061
     16 C         140.0059  143.3823  164.4527 C.3     1  UNL1        0.2960
     17 F         139.7215  142.1982  165.3285 F       1  UNL1       -0.2010
     18 F         140.7039  143.4233  165.7797 F       1  UNL1       -0.2010
     19 C         140.7398  144.6838  164.3209 C.3     1  UNL1        0.1335
     20 S         140.6049  145.4973  163.0678 S.3     1  UNL1       -0.0750
     21 H         139.0312  145.5025  159.9578 H       1  UNL1        0.1442
     22 H         140.0831  146.6770  160.6072 H       1  UNL1        0.1442
     23 C         141.1443  142.2433  168.0799 C.ar    1  UNL1        0.0384
     24 C         142.6174  141.9609  168.0648 C.ar    1  UNL1        0.1022
     25 N         143.4861  142.4489  169.1860 N.ar    1  UNL1       -0.2224
     26 C         142.8818  143.2194  170.3223 C.ar    1  UNL1        0.1989
     27 N         141.4087  143.5018  170.3374 N.ar    1  UNL1       -0.2224
     28 C         140.5399  143.0137  169.2162 C.ar    1  UNL1        0.1022
@<TRIPOS>BOND
     1     1     2    1
     2     2     3    2
     3     3     4    1
     4     4     5    1
     5     5     6   ar
     6     6     7   ar
     7     7    23    1
     8    23    24   ar
     9    24    25   ar
    10    25    26   ar
    11    26    27   ar
    12    27    28   ar
    13     7     8   ar
    14     8     9   ar
    15     9    10   ar
    16    10    11    1
    17    11    12    1
    18    12    13    1
    19    13    14    1
    20    14    15    1
    21     4    16    1
    22    16    17    1
    23    16    18    1
    24    16    19    1
    25    19    20    1
    26    20     2    1
    27    13     4    1
    28    10     5   ar
    29    15    13    1
    30    28    23   ar
    31     1    21    1
    32     1    22    1
@<TRIPOS>MOLECULE
*****
 28 32 0 0 0
SMALL
GASTEIGER

@<TRIPOS>ATOM
      1 N         144.6056  138.3904  161.5707 N.pl3   1  UNL1       -0.3380
      2 C         143.7433  138.7099  162.7556 C.2     1  UNL1        0.1485
      3 N         142.2989  138.3054  162.7630 N.2     1  UNL1       -0.2453
      4 C         141.4365  138.6249  163.9480 C.3     1  UNL1        0.1677
      5 C         140.5742  138.9445  165.1330 C.ar    1  UNL1        0.0371
      6 C         141.1563  139.6686  166.3107 C.ar    1  UNL1        0.0008
      7 C         140.2939  139.9881  167.4958 C.ar    1  UNL1        0.0029
      8 C         138.8495  139.5836  167.5031 C.ar    1  UNL1        0.0032
      9 C         138.2675  138.8595  166.3254 C.ar    1  UNL1        0.0366
     10 C         139.1298  138.5400  165.1404 C.ar    1  UNL1        0.1364
     11 O         138.5477  137.8159  163.9626 O.3     1  UNL1       -0.4756
     12 C         139.4101  137.4964  162.7777 C.3     1  UNL1        0.2075
     13 C         140.8545  137.9009  162.7703 C.3     1  UNL1        0.0681
     14 C         141.1861  138.0856  162.9619 C.3     1  UNL1        0.0061
     15 C         140.5227  137.7162  162.5788 C.3     1  UNL1        0.0061
     16 C         142.0186  139.3490  165.1257 C.3     1  UNL1        0.2960
     17 F         140.7307  139.3506  165.8946 F       1  UNL1       -0.2010
     18 F         142.1101  140.0127  166.4678 F       1  UNL1       -0.2010
     19 C         143.4630  139.7535  165.1184 C.3     1  UNL1        0.1335
     20 S         144.3254  139.4340  163.9333 S.3     1  UNL1       -0.0750
     21 H         144.2236  137.9151  160.7977 H       1  UNL1        0.1442
     22 H         145.5536  138.6559  161.5659 H       1  UNL1        0.1442
     23 C         140.8760  140.7122  168.6734 C.ar    1  UNL1        0.0384
     24 C         141.3451  139.9407  169.8712 C.ar    1  UNL1        0.1022
     25 N         141.9272  140.6647  171.0488 N.ar    1  UNL1       -0.2224
     26 C         142.0402  142.1604  171.0287 C.ar    1  UNL1        0.1989
     27 N         141.5710  142.9319  169.8309 N.ar    1  UNL1       -0.2224
     28 C         140.9889  142.2078  168.6533 C.ar    1  UNL1        0.1022
@<TRIPOS>BOND
     1     1     2    1
     2     2     3    2
     3     3     4    1
     4     4     5    1
     5     5     6   ar
     6     6     7   ar
     7     7    23    1
     8    23    24   ar
     9    24    25   ar
    10    25    26   ar
    11    26    27   ar
    12    27    28   ar
    13     7     8   ar
    14     8     9   ar
    15     9    10   ar
    16    10    11    1
    17    11    12    1
    18    12    13    1
    19    13    14    1
    20    14    15    1
    21     4    16    1
    22    16    17    1
    23    16    18    1
    24    16    19    1
    25    19    20    1
    26    20     2    1
    27    13     4    1
    28    10     5   ar
    29    15    13    1
    30    28    23   ar
    31     1    21    1
    32     1    22    1
@<TRIPOS>MOLECULE
*****
 28 32 0 0 0
SMALL
GASTEIGER

@<TRIPOS>ATOM
      1 N         142.5498  142.8748  171.0921 N.pl3   1  UNL1       -0.3380
      2 C         142.0873  142.1263  169.8774 C.2     1  UNL1        0.1485
      3 N         140.7875  141.3782  169.9072 N.2     1  UNL1       -0.2453
      4 C         140.3249  140.6297  168.6924 C.3     1  UNL1        0.1677
      5 C         139.8623  139.8811  167.4775 C.ar    1  UNL1        0.0371
      6 C         140.6996  139.8807  166.2330 C.ar    1  UNL1        0.0008
      7 C         140.2370  139.1322  165.0181 C.ar    1  UNL1        0.0029
      8 C         138.9372  138.3841  165.0479 C.ar    1  UNL1        0.0032
      9 C         138.1000  138.3845  166.2926 C.ar    1  UNL1        0.0366
     10 C         138.5625  139.1330  167.5074 C.ar    1  UNL1        0.1364
     11 O         137.7253  139.1335  168.7520 O.3     1  UNL1       -0.4756
     12 C         138.1879  139.8820  169.9668 C.3     1  UNL1        0.2075
     13 C         139.4877  140.6301  169.9370 C.3     1  UNL1        0.0681
     14 C         139.8374  140.7524  169.7284 C.3     1  UNL1        0.0061
     15 C         139.1379  140.5077  170.1455 C.3     1  UNL1        0.0061
     16 C         141.1621  140.6292  167.4477 C.3     1  UNL1        0.2960
     17 F         140.2056  139.7672  166.6784 F       1  UNL1       -0.2010
     18 F         141.6009  140.3333  166.0442 F       1  UNL1       -0.2010
     19 C         142.4619  141.3773  167.4179 C.3     1  UNL1        0.1335
     20 S         142.9245  142.1259  168.6328 S.3     1  UNL1       -0.0750
     21 H         142.0003  142.8751  171.9090 H       1  UNL1        0.1442
     22 H         143.4029  143.3658  171.0725 H       1  UNL1        0.1442
     23 C         141.0742  139.1317  163.7735 C.ar    1  UNL1        0.0384
     24 C         142.0332  138.0077  163.5151 C.ar    1  UNL1        0.1022
     25 N         142.8704  138.0072  162.2705 N.ar    1  UNL1       -0.2224
     26 C         142.7487  139.1309  161.2843 C.ar    1  UNL1        0.1989
     27 N         141.7897  140.2550  161.5427 N.ar    1  UNL1       -0.2224
     28 C         140.9524  140.2554  162.7874 C.ar    1  UNL1        0.1022
@<TRIPOS>BOND
     1     1     2    1
     2     2     3    2
     3     3     4    1
     4     4     5    1
     5     5     6   ar
     6     6     7   ar
     7     7    23    1
     8    23    24   ar
     9    24    25   ar
    10    25    26   ar
    11    26    27   ar
    12    27    28   ar
    13     7     8   ar
    14     8     9   ar
    15     9    10   ar
    16    10    11    1
    17    11    12    1
    18    12    13    1
    19    13    14    1
    20    14    15    1
    21     4    16    1
    22    16    17    1
    23    16    18    1
    24    16    19    1
    25    19    20    1
    26    20     2    1
    27    13     4    1
    28    10     5   ar
    29    15    13    1
    30    28    23   ar
    31     1    21    1
    32     1    22    1
@<TRIPOS>MOLECULE
*****
 28 32 0 0 0
SMALL
GASTEIGER

@<TRIPOS>ATOM
      1 N         136.7148  137.9246  167.7007 N.pl3   1  UNL1       -0.3380
      2 C         137.9309  138.6640  167.2272 C.2     1  UNL1        0.1485
      3 N         138.7413  139.4731  168.1960 N.2     1  UNL1       -0.2453
      4 C         139.9574  140.2125  167.7225 C.3     1  UNL1        0.1677
      5 C         141.1737  140.9518  167.2490 C.ar    1  UNL1        0.0371
      6 C         141.5795  140.8821  165.8066 C.ar    1  UNL1        0.0008
      7 C         142.7957  141.6215  165.3331 C.ar    1  UNL1        0.0029
      8 C         143.6061  142.4306  166.3019 C.ar    1  UNL1        0.0032
      9 C         143.2002  142.5003  167.7443 C.ar    1  UNL1        0.0366
     10 C         141.9840  141.7610  168.2178 C.ar    1  UNL1        0.1364
     11 O         141.5781  141.8307  169.6602 O.3     1  UNL1       -0.4756
     12 C         140.3620  141.0913  170.1337 C.3     1  UNL1        0.2075
     13 C         139.5516  140.2822  169.1649 C.3     1  UNL1        0.0681
     14 C         139.4854  140.1384  168.7703 C.3     1  UNL1        0.0061
     15 C         139.6179  140.4261  169.5596 C.3     1  UNL1        0.0061
     16 C         140.3633  140.1427  166.2801 C.3     1  UNL1        0.2960
     17 F         141.5588  141.0297  166.4647 F       1  UNL1       -0.2010
     18 F         141.1448  140.3829  165.0225 F       1  UNL1       -0.2010
     19 C         139.5530  139.3336  165.3113 C.3     1  UNL1        0.1335
     20 S         138.3367  138.5942  165.7849 S.3     1  UNL1       -0.0750
     21 H         136.4484  137.9704  168.6474 H       1  UNL1        0.1442
     22 H         136.1829  137.3936  167.0648 H       1  UNL1        0.1442
     23 C         143.2015  141.5517  163.8907 C.ar    1  UNL1        0.0384
     24 C         142.6459  142.5381  162.9067 C.ar    1  UNL1        0.1022
     25 N         143.0517  142.4684  161.4644 N.ar    1  UNL1       -0.2224
     26 C         144.0132  141.4122  161.0060 C.ar    1  UNL1        0.1989
     27 N         144.5688  140.4258  161.9900 N.ar    1  UNL1       -0.2224
     28 C         144.1630  140.4956  163.4324 C.ar    1  UNL1        0.1022
@<TRIPOS>BOND
     1     1     2    1
     2     2     3    2
     3     3     4    1
     4     4     5    1
     5     5     6   ar
     6     6     7   ar
     7     7    23    1
     8    23    24   ar
     9    24    25   ar
    10    25    26   ar
    11    26    27   ar
    12    27    28   ar
    13     7     8   ar
    14     8     9   ar
    15     9    10   ar
    16    10    11    1
    17    11    12    1
    18    12    13    1
    19    13    14    1
    20    14    15    1
    21     4    16    1
    22    16    17    1
    23    16    18    1
    24    16    19    1
    25    19    20    1
    26    20     2    1
    27    13     4    1
    28    10     5   ar
    29    15    13    1
    30    28    23   ar
    31     1    21    1
    32     1    22    1
@<TRIPOS>MOLECULE
*****
 28 32 0 0 0
SMALL
GASTEIGER

@<TRIPOS>ATOM
      1 N         142.2765  142.4793  171.7958 N.pl3   1  UNL1       -0.3380
      2 C         141.9971  141.8872  170.4463 C.2     1  UNL1        0.1485
      3 N         140.7133  141.1511  170.2014 N.2     1  UNL1       -0.2453
      4 C         140.4339  140.5590  168.8519 C.3     1  UNL1        0.1677
      5 C         140.1547  139.9668  167.5022 C.ar    1  UNL1        0.0371
      6 C         141.1592  140.1106  166.3977 C.ar    1  UNL1        0.0008
      7 C         140.8799  139.5184  165.0480 C.ar    1  UNL1        0.0029
      8 C         139.5960  138.7824  164.8031 C.ar    1  UNL1        0.0032
      9 C         138.5915  138.6386  165.9078 C.ar    1  UNL1        0.0366
     10 C         138.8708  139.2308  167.2573 C.ar    1  UNL1        0.1364
     11 O         137.8662  139.0869  168.3620 O.3     1  UNL1       -0.4756
     12 C         138.1456  139.6791  169.7115 C.3     1  UNL1        0.2075
     13 C         139.4294  140.4151  169.9565 C.3     1  UNL1        0.0681
     14 C         139.8039  140.5591  169.8158 C.3     1  UNL1        0.0061
     15 C         139.0548  140.2711  170.0971 C.3     1  UNL1        0.0061
     16 C         141.4385  140.7028  167.7472 C.3     1  UNL1        0.2960
     17 F         140.6083  139.9479  166.7518 F       1  UNL1       -0.2010
     18 F         142.0738  140.5757  166.3943 F       1  UNL1       -0.2010
     19 C         142.7224  141.4388  167.9921 C.3     1  UNL1        0.1335
     20 S         143.0017  142.0310  169.3417 S.3     1  UNL1       -0.0750
     21 H         141.6171  142.3849  172.5209 H       1  UNL1        0.1442
     22 H         143.1191  142.9624  171.9566 H       1  UNL1        0.1442
     23 C         141.8844  139.6623  163.9434 C.ar    1  UNL1        0.0384
     24 C         141.8348  140.8550  163.0352 C.ar    1  UNL1        0.1022
     25 N         142.8393  140.9989  161.9306 N.ar    1  UNL1       -0.2224
     26 C         143.8936  139.9500  161.7342 C.ar    1  UNL1        0.1989
     27 N         143.9432  138.7572  162.6425 N.ar    1  UNL1       -0.2224
     28 C         142.9386  138.6134  163.7471 C.ar    1  UNL1        0.1022
@<TRIPOS>BOND
     1     1     2    1
     2     2     3    2
     3     3     4    1
     4     4     5    1
     5     5     6   ar
     6     6     7   ar
     7     7    23    1
     8    23    24   ar
     9    24    25   ar
    10    25    26   ar
    11    26    27   ar
    12    27    28   ar
    13     7     8   ar
    14     8     9   ar
    15     9    10   ar
    16    10    11    1
    17    11    12    1
    18    12    13    1
    19    13    14    1
    20    14    15    1
    21     4    16    1
    22    16    17    1
    23    16    18    1
    24    16    19    1
    25    19    20    1
    26    20     2    1
    27    13     4    1
    28    10     5   ar
    29    15    13    1
    30    28    23   ar
    31     1    21    1
    32     1    22    1
@<TRIPOS>MOLECULE
*****
 28 32 0 0 0
SMALL
GASTEIGER

@<TRIPOS>ATOM
      1 N         145.2141  143.9892  166.1690 N.pl3   1  UNL1       -0.3380
      2 C         143.9715  143.1802  165.9421 C.2     1  UNL1        0.1485
      3 N         143.2729  142.5369  167.1032 N.2     1  UNL1       -0.2453
      4 C         142.0304  141.7279  166.8763 C.3     1  UNL1        0.1677
      5 C         140.7878  140.9189  166.6494 C.ar    1  UNL1        0.0371
      6 C         140.2438  140.7532  165.2614 C.ar    1  UNL1        0.0008
      7 C         139.0011  139.9442  165.0345 C.ar    1  UNL1        0.0029
      8 C         138.3026  139.3008  166.1956 C.ar    1  UNL1        0.0032
      9 C         138.8466  139.4666  167.5836 C.ar    1  UNL1        0.0366
     10 C         140.0892  140.2755  167.8105 C.ar    1  UNL1        0.1364
     11 O         140.6333  140.4413  169.1985 O.3     1  UNL1       -0.4756
     12 C         141.8758  141.2503  169.4254 C.3     1  UNL1        0.2075
     13 C         142.5744  141.8936  168.2643 C.3     1  UNL1        0.0681
     14 C         142.5997  141.9717  167.8471 C.3     1  UNL1        0.0061
     15 C         142.5491  141.8154  168.6815 C.3     1  UNL1        0.0061
     16 C         141.4863  141.5622  165.4883 C.3     1  UNL1        0.2960
     17 F         140.3304  140.7142  165.9294 F       1  UNL1       -0.2010
     18 F         140.5918  141.1197  164.3684 F       1  UNL1       -0.2010
     19 C         142.1849  142.2055  164.3272 C.3     1  UNL1        0.1335
     20 S         143.4275  143.0145  164.5541 S.3     1  UNL1       -0.0750
     21 H         145.5711  144.0980  167.0800 H       1  UNL1        0.1442
     22 H         145.6725  144.4114  165.4069 H       1  UNL1        0.1442
     23 C         138.4571  139.7785  163.6465 C.ar    1  UNL1        0.0384
     24 C         138.5543  138.4502  162.9564 C.ar    1  UNL1        0.1022
     25 N         138.0103  138.2845  161.5684 N.ar    1  UNL1       -0.2224
     26 C         137.3691  139.4472  160.8704 C.ar    1  UNL1        0.1989
     27 N         137.2719  140.7754  161.5605 N.ar    1  UNL1       -0.2224
     28 C         137.8159  140.9411  162.9485 C.ar    1  UNL1        0.1022
@<TRIPOS>BOND
     1     1     2    1
     2     2     3    2
     3     3     4    1
     4     4     5    1
     5     5     6   ar
     6     6     7   ar
     7     7    23    1
     8    23    24   ar
     9    24    25   ar
    10    25    26   ar
    11    26    27   ar
    12    27    28   ar
    13     7     8   ar
    14     8     9   ar
    15     9    10   ar
    16    10    11    1
    17    11    12    1
    18    12    13    1
    19    13    14    1
    20    14    15    1
    21     4    16    1
    22    16    17    1
    23    16    18    1
    24    16    19    1
    25    19    20    1
    26    20     2    1
    27    13     4    1
    28    10     5   ar
    29    15    13    1
    30    28    23   ar
    31     1    21    1
    32     1    22    1
@<TRIPOS>MOLECULE
*****
 28 32 0 0 0
SMALL
GASTEIGER

@<TRIPOS>ATOM
      1 N         138.4574  145.2205  165.8635 N.pl3   1  UNL1       -0.3380
      2 C         139.2947  144.0113  165.5689 C.2     1  UNL1        0.1485
      3 N         139.9695  143.2755  166.6884 N.2     1  UNL1       -0.2453
      4 C         140.8068  142.0663  166.3938 C.3     1  UNL1        0.1677
      5 C         141.6441  140.8571  166.0992 C.ar    1  UNL1        0.0371
      6 C         141.8065  140.3837  164.6852 C.ar    1  UNL1        0.0008
      7 C         142.6439  139.1745  164.3905 C.ar    1  UNL1        0.0029
      8 C         143.3187  138.4387  165.5100 C.ar    1  UNL1        0.0032
      9 C         143.1562  138.9121  166.9241 C.ar    1  UNL1        0.0366
     10 C         142.3189  140.1213  167.2186 C.ar    1  UNL1        0.1364
     11 O         142.1564  140.5947  168.6327 O.3     1  UNL1       -0.4756
     12 C         141.3191  141.8039  168.9273 C.3     1  UNL1        0.2075
     13 C         140.6443  142.5397  167.8078 C.3     1  UNL1        0.0681
     14 C         140.5605  142.5826  167.3932 C.3     1  UNL1        0.0061
     15 C         140.7282  142.4967  168.2225 C.3     1  UNL1        0.0061
     16 C         140.9693  141.5929  164.9797 C.3     1  UNL1        0.2960
     17 F         141.8515  140.4397  165.3561 F       1  UNL1       -0.2010
     18 F         141.4205  140.7640  163.8138 F       1  UNL1       -0.2010
     19 C         140.2944  142.3287  163.8603 C.3     1  UNL1        0.1335
     20 S         139.4571  143.5380  164.1549 S.3     1  UNL1       -0.0750
     21 H         138.3507  145.5312  166.7915 H       1  UNL1        0.1442
     22 H         138.0145  145.7034  165.1287 H       1  UNL1        0.1442
     23 C         142.8063  138.7012  162.9765 C.ar    1  UNL1        0.0384
     24 C         144.0477  139.0456  162.2082 C.ar    1  UNL1        0.1022
     25 N         144.2102  138.5723  160.7942 N.ar    1  UNL1       -0.2224
     26 C         143.1312  137.7544  160.1484 C.ar    1  UNL1        0.1989
     27 N         141.8898  137.4099  160.9167 N.ar    1  UNL1       -0.2224
     28 C         141.7274  137.8833  162.3308 C.ar    1  UNL1        0.1022
@<TRIPOS>BOND
     1     1     2    1
     2     2     3    2
     3     3     4    1
     4     4     5    1
     5     5     6   ar
     6     6     7   ar
     7     7    23    1
     8    23    24   ar
     9    24    25   ar
    10    25    26   ar
    11    26    27   ar
    12    27    28   ar
    13     7     8   ar
    14     8     9   ar
    15     9    10   ar
    16    10    11    1
    17    11    12    1
    18    12    13    1
    19    13    14    1
    20    14    15    1
    21     4    16    1
    22    16    17    1
    23    16    18    1
    24    16    19    1
    25    19    20    1
    26    20     2    1
    27    13     4    1
    28    10     5   ar
    29    15    13    1
    30    28    23   ar
    31     1    21    1
    32     1    22    1
