@<TRIPOS>MOLECULE
*****
 32 34 0 0 0
SMALL
GASTEIGER

@<TRIPOS>ATOM
      1 C         142.3753  141.0427  162.8647 C.3     1  UNL1        0.1688
      2 C         141.1200  140.9447  162.0493 C.3     1  UNL1        0.0609
      3 C         140.8833  141.9017  160.9188 C.3     1  UNL1        0.0758
      4 N         141.9019  142.9567  160.6035 N.3     1  UNL1       -0.2724
      5 C         143.1571  143.0548  161.4188 C.3     1  UNL1        0.0758
      6 C         143.3938  142.0978  162.5494 C.3     1  UNL1        0.0609
      7 O         142.6119  140.0858  163.9952 O.3     1  UNL1       -0.4776
      8 C         142.1796  141.5192  167.6706 C.ar    1  UNL1       -0.0191
      9 C         142.7640  141.2408  166.3175 C.ar    1  UNL1        0.0342
     10 C         142.0275  140.3642  165.3484 C.ar    1  UNL1        0.1555
     11 C         140.7065  139.7661  165.7324 C.ar    1  UNL1        0.1151
     12 N         139.9701  138.8895  164.7633 N.ar    1  UNL1       -0.2408
     13 C         138.6492  138.2914  165.1473 C.ar    1  UNL1        0.0989
     14 C         138.0648  138.5699  166.5004 C.ar    1  UNL1        0.0207
     15 C         138.8013  139.4464  167.4695 C.ar    1  UNL1        0.0032
     16 C         140.1221  140.0445  167.0855 C.ar    1  UNL1        0.0204
     17 C         140.8587  140.9211  168.0546 C.ar    1  UNL1       -0.0026
     18 C         142.9161  142.3959  168.6397 C.3     1  UNL1        0.0265
     19 C         142.2747  142.7807  169.9399 C.3     1  UNL1        0.0047
     20 C         139.7922  143.1326  170.6203 C.3     1  UNL1        0.0000
     21 C         141.0363  143.6270  169.9437 C.3     1  UNL1        0.0003
     22 C         141.6653  143.9137  159.4730 C.3     1  UNL1        0.0721
     23 C         141.2545  145.3274  159.7605 C.3     1  UNL1        0.0191
     24 C         140.0243  145.6002  160.5743 C.3     1  UNL1        0.0267
     25 C         140.1340  145.7940  162.0576 C.3     1  UNL1        0.1507
     26 S         139.6201  144.7389  162.9919 S.O2    1  UNL1       -0.0132
     27 O         138.2591  144.8524  162.3715 O.2     1  UNL1       -0.1731
     28 O         140.9810  144.6254  163.6123 O.2     1  UNL1       -0.1731
     29 C         139.1062  143.6839  163.9261 C.3     1  UNL1        0.1107
     30 C         137.8270  143.6159  163.1458 C.3     1  UNL1        0.0236
     31 C         140.3854  143.7518  164.7064 C.3     1  UNL1        0.0236
     32 C         138.5924  142.6288  164.8604 C.3     1  UNL1        0.0236
@<TRIPOS>BOND
     1    20    21    1
     2    21    19    1
     3    19    18    1
     4    18     8    1
     5     8     9   ar
     6     9    10   ar
     7    10     7    1
     8     7     1    1
     9     1     2    1
    10     2     3    1
    11     3     4    1
    12     4    22    1
    13    22    23    1
    14    23    24    1
    15    24    25    1
    16    25    26    1
    17    26    27    2
    18    26    28    2
    19    26    29    1
    20    29    30    1
    21    29    31    1
    22    29    32    1
    23     4     5    1
    24     5     6    1
    25    10    11   ar
    26    11    12   ar
    27    12    13   ar
    28    13    14   ar
    29    14    15   ar
    30    15    16   ar
    31    16    17   ar
    32    17     8   ar
    33     6     1    1
    34    16    11   ar
@<TRIPOS>MOLECULE
*****
 32 34 0 0 0
SMALL
GASTEIGER

@<TRIPOS>ATOM
      1 C         141.0912  138.4079  164.6877 C.3     1  UNL1        0.1688
      2 C         139.7179  138.8870  165.0549 C.3     1  UNL1        0.0609
      3 C         138.6081  138.8263  164.0477 C.3     1  UNL1        0.0758
      4 N         138.8715  138.2866  162.6731 N.3     1  UNL1       -0.2724
      5 C         140.2446  137.8076  162.3058 C.3     1  UNL1        0.0758
      6 C         141.3545  137.8683  163.3131 C.3     1  UNL1        0.0609
      7 O         142.2010  138.4686  165.6949 O.3     1  UNL1       -0.4776
      8 C         142.3850  141.2211  168.5480 C.ar    1  UNL1       -0.0191
      9 C         142.0869  139.9344  167.8370 C.ar    1  UNL1        0.0342
     10 C         142.4990  139.7553  166.4059 C.ar    1  UNL1        0.1555
     11 C         143.2093  140.8631  165.6857 C.ar    1  UNL1        0.1151
     12 N         143.6214  140.6840  164.2546 N.ar    1  UNL1       -0.2408
     13 C         144.3315  141.7917  163.5345 C.ar    1  UNL1        0.0989
     14 C         144.6296  143.0785  164.2455 C.ar    1  UNL1        0.0207
     15 C         144.2175  143.2575  165.6766 C.ar    1  UNL1        0.0032
     16 C         143.5073  142.1498  166.3967 C.ar    1  UNL1        0.0204
     17 C         143.0952  142.3288  167.8278 C.ar    1  UNL1       -0.0026
     18 C         141.9729  141.4001  169.9791 C.3     1  UNL1        0.0265
     19 C         140.5177  141.4453  170.3405 C.3     1  UNL1        0.0047
     20 C         140.3934  143.9994  169.8807 C.3     1  UNL1        0.0000
     21 C         139.8312  142.7663  170.5238 C.3     1  UNL1        0.0003
     22 C         137.7617  138.2259  161.6659 C.3     1  UNL1        0.0721
     23 C         137.4485  139.4257  160.8217 C.3     1  UNL1        0.0191
     24 C         138.4550  140.5294  160.6843 C.3     1  UNL1        0.0267
     25 C         138.1904  141.8675  161.3083 C.3     1  UNL1        0.1507
     26 S         138.7514  142.1879  162.6621 S.O2    1  UNL1       -0.0132
     27 O         137.4655  142.8642  163.0350 O.2     1  UNL1       -0.1731
     28 O         140.0373  141.5116  162.2892 O.2     1  UNL1       -0.1731
     29 C         139.3124  142.5082  164.0158 C.3     1  UNL1        0.1107
     30 C         140.6941  142.5496  163.4334 C.3     1  UNL1        0.0236
     31 C         137.9307  142.4668  164.5982 C.3     1  UNL1        0.0236
     32 C         139.8734  142.8286  165.3696 C.3     1  UNL1        0.0236
@<TRIPOS>BOND
     1    20    21    1
     2    21    19    1
     3    19    18    1
     4    18     8    1
     5     8     9   ar
     6     9    10   ar
     7    10     7    1
     8     7     1    1
     9     1     2    1
    10     2     3    1
    11     3     4    1
    12     4    22    1
    13    22    23    1
    14    23    24    1
    15    24    25    1
    16    25    26    1
    17    26    27    2
    18    26    28    2
    19    26    29    1
    20    29    30    1
    21    29    31    1
    22    29    32    1
    23     4     5    1
    24     5     6    1
    25    10    11   ar
    26    11    12   ar
    27    12    13   ar
    28    13    14   ar
    29    14    15   ar
    30    15    16   ar
    31    16    17   ar
    32    17     8   ar
    33     6     1    1
    34    16    11   ar
@<TRIPOS>MOLECULE
*****
 32 34 0 0 0
SMALL
GASTEIGER

@<TRIPOS>ATOM
      1 C         140.9249  138.5393  164.9693 C.3     1  UNL1        0.1688
      2 C         139.5116  138.9493  165.2601 C.3     1  UNL1        0.0609
      3 C         138.4665  138.8505  164.1886 C.3     1  UNL1        0.0758
      4 N         138.8347  138.3417  162.8264 N.3     1  UNL1       -0.2724
      5 C         140.2479  137.9317  162.5357 C.3     1  UNL1        0.0758
      6 C         141.2931  138.0305  163.6071 C.3     1  UNL1        0.0609
      7 O         141.9700  138.6381  166.0408 O.3     1  UNL1       -0.4776
      8 C         143.7337  142.1929  165.9904 C.ar    1  UNL1       -0.0191
      9 C         143.2425  140.8479  165.5435 C.ar    1  UNL1        0.0342
     10 C         142.4612  139.9831  166.4876 C.ar    1  UNL1        0.1555
     11 C         142.1709  140.4633  167.8788 C.ar    1  UNL1        0.1151
     12 N         141.3896  139.5985  168.8230 N.ar    1  UNL1       -0.2408
     13 C         141.0994  140.0787  170.2141 C.ar    1  UNL1        0.0989
     14 C         141.5906  141.4237  170.6610 C.ar    1  UNL1        0.0207
     15 C         142.3719  142.2885  169.7168 C.ar    1  UNL1        0.0032
     16 C         142.6621  141.8083  168.3257 C.ar    1  UNL1        0.0204
     17 C         143.4435  142.6731  167.3814 C.ar    1  UNL1       -0.0026
     18 C         144.5150  143.0578  165.0461 C.3     1  UNL1        0.0265
     19 C         143.8468  143.6423  163.8370 C.3     1  UNL1        0.0047
     20 C         142.0032  145.4611  163.6296 C.3     1  UNL1        0.0000
     21 C         143.4420  145.0866  163.8284 C.3     1  UNL1        0.0003
     22 C         137.7896  138.2429  161.7550 C.3     1  UNL1        0.0721
     23 C         137.5650  139.3925  160.8180 C.3     1  UNL1        0.0191
     24 C         138.4703  140.5876  160.8666 C.3     1  UNL1        0.0267
     25 C         138.0171  141.8444  161.5484 C.3     1  UNL1        0.1507
     26 S         138.6494  142.2659  162.8418 S.O2    1  UNL1       -0.0132
     27 O         139.9222  141.5795  162.4433 O.2     1  UNL1       -0.1731
     28 O         137.3766  142.9522  163.2403 O.2     1  UNL1       -0.1731
     29 C         139.2816  142.6873  164.1351 C.3     1  UNL1        0.1107
     30 C         137.9884  143.3157  164.5624 C.3     1  UNL1        0.0236
     31 C         140.5748  142.0589  163.7078 C.3     1  UNL1        0.0236
     32 C         139.9138  143.1088  165.4285 C.3     1  UNL1        0.0236
@<TRIPOS>BOND
     1    20    21    1
     2    21    19    1
     3    19    18    1
     4    18     8    1
     5     8     9   ar
     6     9    10   ar
     7    10     7    1
     8     7     1    1
     9     1     2    1
    10     2     3    1
    11     3     4    1
    12     4    22    1
    13    22    23    1
    14    23    24    1
    15    24    25    1
    16    25    26    1
    17    26    27    2
    18    26    28    2
    19    26    29    1
    20    29    30    1
    21    29    31    1
    22    29    32    1
    23     4     5    1
    24     5     6    1
    25    10    11   ar
    26    11    12   ar
    27    12    13   ar
    28    13    14   ar
    29    14    15   ar
    30    15    16   ar
    31    16    17   ar
    32    17     8   ar
    33     6     1    1
    34    16    11   ar
@<TRIPOS>MOLECULE
*****
 32 34 0 0 0
SMALL
GASTEIGER

@<TRIPOS>ATOM
      1 C         138.5058  139.8016  163.4616 C.3     1  UNL1        0.1688
      2 C         139.2461  139.3983  162.2208 C.3     1  UNL1        0.0609
      3 C         139.2402  140.2957  161.0189 C.3     1  UNL1        0.0758
      4 N         138.4941  141.5964  161.0577 N.3     1  UNL1       -0.2724
      5 C         137.7539  141.9997  162.2984 C.3     1  UNL1        0.0758
      6 C         137.7597  141.1023  163.5004 C.3     1  UNL1        0.0609
      7 O         138.5117  138.9042  164.6635 O.3     1  UNL1       -0.4776
      8 C         139.6592  139.9983  168.3016 C.ar    1  UNL1       -0.0191
      9 C         138.7802  139.6764  167.1296 C.ar    1  UNL1        0.0342
     10 C         139.3907  139.2261  165.8356 C.ar    1  UNL1        0.1555
     11 C         140.8803  139.0978  165.7136 C.ar    1  UNL1        0.1151
     12 N         141.4908  138.6476  164.4196 N.ar    1  UNL1       -0.2408
     13 C         142.9803  138.5192  164.2976 C.ar    1  UNL1        0.0989
     14 C         143.8592  138.8412  165.4697 C.ar    1  UNL1        0.0207
     15 C         143.2487  139.2914  166.7637 C.ar    1  UNL1        0.0032
     16 C         141.7592  139.4197  166.8856 C.ar    1  UNL1        0.0204
     17 C         141.1487  139.8700  168.1797 C.ar    1  UNL1       -0.0026
     18 C         139.0486  140.4486  169.5957 C.3     1  UNL1        0.0265
     19 C         139.7079  141.5295  170.4000 C.3     1  UNL1        0.0047
     20 C         141.5519  143.2580  169.7986 C.3     1  UNL1        0.0000
     21 C         140.1215  142.8105  169.7383 C.3     1  UNL1        0.0003
     22 C         138.4882  142.4938  159.8558 C.3     1  UNL1        0.0721
     23 C         139.5295  143.5642  159.7139 C.3     1  UNL1        0.0191
     24 C         140.6888  143.6135  160.6643 C.3     1  UNL1        0.0267
     25 C         140.6700  144.5680  161.8213 C.3     1  UNL1        0.1507
     26 S         140.4759  144.0519  163.2163 S.O2    1  UNL1       -0.0132
     27 O         141.4154  142.9187  162.9279 O.2     1  UNL1       -0.1731
     28 O         139.5364  145.1850  163.5048 O.2     1  UNL1       -0.1731
     29 C         140.2817  143.5358  164.6113 C.3     1  UNL1        0.1107
     30 C         141.2692  142.4391  164.3430 C.3     1  UNL1        0.0236
     31 C         139.2943  144.6326  164.8796 C.3     1  UNL1        0.0236
     32 C         140.0875  143.0198  166.0063 C.3     1  UNL1        0.0236
@<TRIPOS>BOND
     1    20    21    1
     2    21    19    1
     3    19    18    1
     4    18     8    1
     5     8     9   ar
     6     9    10   ar
     7    10     7    1
     8     7     1    1
     9     1     2    1
    10     2     3    1
    11     3     4    1
    12     4    22    1
    13    22    23    1
    14    23    24    1
    15    24    25    1
    16    25    26    1
    17    26    27    2
    18    26    28    2
    19    26    29    1
    20    29    30    1
    21    29    31    1
    22    29    32    1
    23     4     5    1
    24     5     6    1
    25    10    11   ar
    26    11    12   ar
    27    12    13   ar
    28    13    14   ar
    29    14    15   ar
    30    15    16   ar
    31    16    17   ar
    32    17     8   ar
    33     6     1    1
    34    16    11   ar
@<TRIPOS>MOLECULE
*****
 32 34 0 0 0
SMALL
GASTEIGER

@<TRIPOS>ATOM
      1 C         143.6178  140.9049  165.1832 C.3     1  UNL1        0.1688
      2 C         143.8924  140.0271  163.9981 C.3     1  UNL1        0.0609
      3 C         144.1677  140.6413  162.6577 C.3     1  UNL1        0.0758
      4 N         144.1685  142.1332  162.5021 N.3     1  UNL1       -0.2724
      5 C         143.8940  143.0110  163.6871 C.3     1  UNL1        0.0758
      6 C         143.6186  142.3968  165.0277 C.3     1  UNL1        0.0609
      7 O         143.3425  140.2907  166.5237 O.3     1  UNL1       -0.4776
      8 C         139.4784  139.3952  166.6519 C.ar    1  UNL1       -0.0191
      9 C         140.8895  139.5165  166.1581 C.ar    1  UNL1        0.0342
     10 C         141.9313  140.1694  167.0175 C.ar    1  UNL1        0.1555
     11 C         141.5619  140.7009  168.3707 C.ar    1  UNL1        0.1151
     12 N         142.6036  141.3537  169.2300 N.ar    1  UNL1       -0.2408
     13 C         142.2342  141.8852  170.5831 C.ar    1  UNL1        0.0989
     14 C         140.8230  141.7638  171.0769 C.ar    1  UNL1        0.0207
     15 C         139.7812  141.1110  170.2176 C.ar    1  UNL1        0.0032
     16 C         140.1507  140.5795  168.8645 C.ar    1  UNL1        0.0204
     17 C         139.1089  139.9266  168.0050 C.ar    1  UNL1       -0.0026
     18 C         138.4366  138.7423  165.7925 C.3     1  UNL1        0.0265
     19 C         138.7974  137.5576  164.9461 C.3     1  UNL1        0.0047
     20 C         138.4712  138.9538  162.7796 C.3     1  UNL1        0.0000
     21 C         138.9788  137.7206  163.4661 C.3     1  UNL1        0.0003
     22 C         144.4438  142.7474  161.1616 C.3     1  UNL1        0.0721
     23 C         143.3071  143.0780  160.2404 C.3     1  UNL1        0.0191
     24 C         141.9250  142.5821  160.5466 C.3     1  UNL1        0.0267
     25 C         140.8714  143.5407  161.0167 C.3     1  UNL1        0.1507
     26 S         139.9069  143.1282  162.0890 S.O2    1  UNL1       -0.0132
     27 O         139.0317  144.2988  161.7521 O.2     1  UNL1       -0.1731
     28 O         140.7822  141.9576  162.4260 O.2     1  UNL1       -0.1731
     29 C         138.9425  142.7158  163.1613 C.3     1  UNL1        0.1107
     30 C         137.7938  143.0811  162.2686 C.3     1  UNL1        0.0236
     31 C         140.0913  142.3504  164.0540 C.3     1  UNL1        0.0236
     32 C         137.9781  142.3033  164.2336 C.3     1  UNL1        0.0236
@<TRIPOS>BOND
     1    20    21    1
     2    21    19    1
     3    19    18    1
     4    18     8    1
     5     8     9   ar
     6     9    10   ar
     7    10     7    1
     8     7     1    1
     9     1     2    1
    10     2     3    1
    11     3     4    1
    12     4    22    1
    13    22    23    1
    14    23    24    1
    15    24    25    1
    16    25    26    1
    17    26    27    2
    18    26    28    2
    19    26    29    1
    20    29    30    1
    21    29    31    1
    22    29    32    1
    23     4     5    1
    24     5     6    1
    25    10    11   ar
    26    11    12   ar
    27    12    13   ar
    28    13    14   ar
    29    14    15   ar
    30    15    16   ar
    31    16    17   ar
    32    17     8   ar
    33     6     1    1
    34    16    11   ar
@<TRIPOS>MOLECULE
*****
 32 34 0 0 0
SMALL
GASTEIGER

@<TRIPOS>ATOM
      1 C         138.7407  139.9780  164.8648 C.3     1  UNL1        0.1688
      2 C         137.9456  141.1098  164.2843 C.3     1  UNL1        0.0609
      3 C         137.4886  141.0507  162.8569 C.3     1  UNL1        0.0758
      4 N         137.8265  139.8597  162.0099 N.3     1  UNL1       -0.2724
      5 C         138.6215  138.7279  162.5903 C.3     1  UNL1        0.0758
      6 C         139.0786  138.7870  164.0178 C.3     1  UNL1        0.0609
      7 O         139.1977  140.0371  166.2922 O.3     1  UNL1       -0.4776
      8 C         142.4938  142.2194  165.9416 C.ar    1  UNL1       -0.0191
      9 C         141.2186  141.5117  165.5911 C.ar    1  UNL1        0.0342
     10 C         140.4729  140.7448  166.6427 C.ar    1  UNL1        0.1555
     11 C         141.0025  140.6857  168.0449 C.ar    1  UNL1        0.1151
     12 N         140.2569  139.9189  169.0965 N.ar    1  UNL1       -0.2408
     13 C         140.7865  139.8598  170.4987 C.ar    1  UNL1        0.0989
     14 C         142.0617  140.5676  170.8492 C.ar    1  UNL1        0.0207
     15 C         142.8074  141.3344  169.7975 C.ar    1  UNL1        0.0032
     16 C         142.2778  141.3935  168.3954 C.ar    1  UNL1        0.0204
     17 C         143.0234  142.1604  167.3437 C.ar    1  UNL1       -0.0026
     18 C         143.2395  142.9863  164.8899 C.3     1  UNL1        0.0265
     19 C         144.7387  142.9504  164.8569 C.3     1  UNL1        0.0047
     20 C         145.2535  140.5219  164.0906 C.3     1  UNL1        0.0000
     21 C         145.4461  142.0014  163.9356 C.3     1  UNL1        0.0003
     22 C         137.3695  139.8006  160.5825 C.3     1  UNL1        0.0721
     23 C         138.1907  140.4441  159.5047 C.3     1  UNL1        0.0191
     24 C         138.4445  141.9221  159.5366 C.3     1  UNL1        0.0267
     25 C         139.8382  142.4396  159.7356 C.3     1  UNL1        0.1507
     26 S         140.1435  143.3476  160.8900 S.O2    1  UNL1       -0.0132
     27 O         140.6435  142.1748  161.6802 O.2     1  UNL1       -0.1731
     28 O         139.6434  144.5204  160.0998 O.2     1  UNL1       -0.1731
     29 C         140.4487  144.2555  162.0443 C.3     1  UNL1        0.1107
     30 C         141.9072  144.2058  161.6976 C.3     1  UNL1        0.0236
     31 C         138.9902  144.3051  162.3909 C.3     1  UNL1        0.0236
     32 C         140.7539  145.1634  163.1987 C.3     1  UNL1        0.0236
@<TRIPOS>BOND
     1    20    21    1
     2    21    19    1
     3    19    18    1
     4    18     8    1
     5     8     9   ar
     6     9    10   ar
     7    10     7    1
     8     7     1    1
     9     1     2    1
    10     2     3    1
    11     3     4    1
    12     4    22    1
    13    22    23    1
    14    23    24    1
    15    24    25    1
    16    25    26    1
    17    26    27    2
    18    26    28    2
    19    26    29    1
    20    29    30    1
    21    29    31    1
    22    29    32    1
    23     4     5    1
    24     5     6    1
    25    10    11   ar
    26    11    12   ar
    27    12    13   ar
    28    13    14   ar
    29    14    15   ar
    30    15    16   ar
    31    16    17   ar
    32    17     8   ar
    33     6     1    1
    34    16    11   ar
@<TRIPOS>MOLECULE
*****
 32 34 0 0 0
SMALL
GASTEIGER

@<TRIPOS>ATOM
      1 C         138.7660  140.4267  164.3364 C.3     1  UNL1        0.1688
      2 C         138.5515  141.9112  164.3597 C.3     1  UNL1        0.0609
      3 C         138.4553  142.6753  163.0726 C.3     1  UNL1        0.0758
      4 N         138.5736  141.9552  161.7621 N.3     1  UNL1       -0.2724
      5 C         138.7881  140.4708  161.7387 C.3     1  UNL1        0.0758
      6 C         138.8843  139.7065  163.0259 C.3     1  UNL1        0.0609
      7 O         138.8623  139.6625  165.6235 O.3     1  UNL1       -0.4776
      8 C         142.7231  139.0047  166.2649 C.ar    1  UNL1       -0.0191
      9 C         141.4037  139.1264  165.5618 C.ar    1  UNL1        0.0342
     10 C         140.1817  139.5408  166.3266 C.ar    1  UNL1        0.1555
     11 C         140.2790  139.8334  167.7946 C.ar    1  UNL1        0.1151
     12 N         139.0570  140.2477  168.5594 N.ar    1  UNL1       -0.2408
     13 C         139.1544  140.5403  170.0273 C.ar    1  UNL1        0.0989
     14 C         140.4738  140.4185  170.7305 C.ar    1  UNL1        0.0207
     15 C         141.6958  140.0042  169.9656 C.ar    1  UNL1        0.0032
     16 C         141.5984  139.7116  168.4977 C.ar    1  UNL1        0.0204
     17 C         142.8205  139.2973  167.7328 C.ar    1  UNL1       -0.0026
     18 C         143.9451  138.5903  165.5000 C.3     1  UNL1        0.0265
     19 C         144.6221  139.5652  164.5827 C.3     1  UNL1        0.0047
     20 C         143.5200  138.4357  162.5188 C.3     1  UNL1        0.0000
     21 C         144.2884  139.5749  163.1203 C.3     1  UNL1        0.0003
     22 C         138.4773  142.7193  160.4750 C.3     1  UNL1        0.0721
     23 C         139.5778  143.6572  160.0754 C.3     1  UNL1        0.0191
     24 C         140.9596  143.4708  160.6282 C.3     1  UNL1        0.0267
     25 C         141.5291  144.4805  161.5802 C.3     1  UNL1        0.1507
     26 S         142.2312  144.0250  162.8251 S.O2    1  UNL1       -0.0132
     27 O         141.7551  145.2530  163.5429 O.2     1  UNL1       -0.1731
     28 O         142.7073  142.7971  162.1072 O.2     1  UNL1       -0.1731
     29 C         142.9333  143.5695  164.0699 C.3     1  UNL1        0.1107
     30 C         143.7469  144.8297  164.0720 C.3     1  UNL1        0.0236
     31 C         142.1197  142.3094  164.0677 C.3     1  UNL1        0.0236
     32 C         143.6354  143.1140  165.3147 C.3     1  UNL1        0.0236
@<TRIPOS>BOND
     1    20    21    1
     2    21    19    1
     3    19    18    1
     4    18     8    1
     5     8     9   ar
     6     9    10   ar
     7    10     7    1
     8     7     1    1
     9     1     2    1
    10     2     3    1
    11     3     4    1
    12     4    22    1
    13    22    23    1
    14    23    24    1
    15    24    25    1
    16    25    26    1
    17    26    27    2
    18    26    28    2
    19    26    29    1
    20    29    30    1
    21    29    31    1
    22    29    32    1
    23     4     5    1
    24     5     6    1
    25    10    11   ar
    26    11    12   ar
    27    12    13   ar
    28    13    14   ar
    29    14    15   ar
    30    15    16   ar
    31    16    17   ar
    32    17     8   ar
    33     6     1    1
    34    16    11   ar
@<TRIPOS>MOLECULE
*****
 32 34 0 0 0
SMALL
GASTEIGER

@<TRIPOS>ATOM
      1 C         143.6564  140.6993  163.8099 C.3     1  UNL1        0.1688
      2 C         143.0411  139.3572  164.0752 C.3     1  UNL1        0.0609
      3 C         143.0314  138.3109  163.0004 C.3     1  UNL1        0.0758
      4 N         143.6371  138.6067  161.6603 N.3     1  UNL1       -0.2724
      5 C         144.2523  139.9487  161.3950 C.3     1  UNL1        0.0758
      6 C         144.2620  140.9950  162.4698 C.3     1  UNL1        0.0609
      7 O         143.6661  141.7455  164.8847 O.3     1  UNL1       -0.4776
      8 C         140.6282  142.0688  167.4178 C.ar    1  UNL1       -0.0191
      9 C         141.9183  141.6138  166.8024 C.ar    1  UNL1        0.0342
     10 C         142.3760  142.2005  165.5001 C.ar    1  UNL1        0.1555
     11 C         141.5437  143.2424  164.8131 C.ar    1  UNL1        0.1151
     12 N         142.0014  143.8291  163.5108 N.ar    1  UNL1       -0.2408
     13 C         141.1691  144.8709  162.8238 C.ar    1  UNL1        0.0989
     14 C         139.8790  145.3259  163.4392 C.ar    1  UNL1        0.0207
     15 C         139.4213  144.7391  164.7416 C.ar    1  UNL1        0.0032
     16 C         140.2536  143.6974  165.4285 C.ar    1  UNL1        0.0204
     17 C         139.7959  143.1105  166.7309 C.ar    1  UNL1       -0.0026
     18 C         140.1705  141.4819  168.7202 C.3     1  UNL1        0.0265
     19 C         139.3273  140.2414  168.7287 C.3     1  UNL1        0.0047
     20 C         137.7916  138.7704  167.2361 C.3     1  UNL1        0.0000
     21 C         139.0917  139.4859  167.4545 C.3     1  UNL1        0.0003
     22 C         143.6274  137.5604  160.5855 C.3     1  UNL1        0.0721
     23 C         142.7395  137.7240  159.3876 C.3     1  UNL1        0.0191
     24 C         141.6414  138.7456  159.4018 C.3     1  UNL1        0.0267
     25 C         140.3298  138.4278  160.0563 C.3     1  UNL1        0.1507
     26 S         139.9510  139.1000  161.3427 S.O2    1  UNL1       -0.0132
     27 O         139.3148  137.8283  161.8200 O.2     1  UNL1       -0.1731
     28 O         140.5873  140.3717  160.8654 O.2     1  UNL1       -0.1731
     29 C         139.5724  139.7723  162.6290 C.3     1  UNL1        0.1107
     30 C         140.2553  141.0278  162.1739 C.3     1  UNL1        0.0236
     31 C         138.8894  138.5168  163.0841 C.3     1  UNL1        0.0236
     32 C         139.1936  140.4446  163.9154 C.3     1  UNL1        0.0236
@<TRIPOS>BOND
     1    20    21    1
     2    21    19    1
     3    19    18    1
     4    18     8    1
     5     8     9   ar
     6     9    10   ar
     7    10     7    1
     8     7     1    1
     9     1     2    1
    10     2     3    1
    11     3     4    1
    12     4    22    1
    13    22    23    1
    14    23    24    1
    15    24    25    1
    16    25    26    1
    17    26    27    2
    18    26    28    2
    19    26    29    1
    20    29    30    1
    21    29    31    1
    22    29    32    1
    23     4     5    1
    24     5     6    1
    25    10    11   ar
    26    11    12   ar
    27    12    13   ar
    28    13    14   ar
    29    14    15   ar
    30    15    16   ar
    31    16    17   ar
    32    17     8   ar
    33     6     1    1
    34    16    11   ar
@<TRIPOS>MOLECULE
*****
 32 34 0 0 0
SMALL
GASTEIGER

@<TRIPOS>ATOM
      1 C         144.0731  139.8844  161.3564 C.3     1  UNL1        0.1688
      2 C         143.6780  138.4486  161.5368 C.3     1  UNL1        0.0609
      3 C         143.1409  137.6668  160.3749 C.3     1  UNL1        0.0758
      4 N         142.9988  138.3207  159.0324 N.3     1  UNL1       -0.2724
      5 C         143.3938  139.7564  158.8519 C.3     1  UNL1        0.0758
      6 C         143.9310  140.5383  160.0139 C.3     1  UNL1        0.0609
      7 O         144.6102  140.6662  162.5184 O.3     1  UNL1       -0.4776
      8 C         142.0516  143.0771  164.3599 C.ar    1  UNL1       -0.0191
      9 C         142.9904  142.5302  163.3257 C.ar    1  UNL1        0.0342
     10 C         143.6713  141.2131  163.5525 C.ar    1  UNL1        0.1555
     11 C         143.4135  140.4428  164.8136 C.ar    1  UNL1        0.1151
     12 N         144.0944  139.1257  165.0404 N.ar    1  UNL1       -0.2408
     13 C         143.8365  138.3555  166.3014 C.ar    1  UNL1        0.0989
     14 C         142.8977  138.9024  167.3356 C.ar    1  UNL1        0.0207
     15 C         142.2168  140.2195  167.1088 C.ar    1  UNL1        0.0032
     16 C         142.4747  140.9897  165.8478 C.ar    1  UNL1        0.0204
     17 C         141.7937  142.3069  165.6209 C.ar    1  UNL1       -0.0026
     18 C         141.3706  144.3943  164.1330 C.3     1  UNL1        0.0265
     19 C         139.9215  144.5595  164.4832 C.3     1  UNL1        0.0047
     20 C         138.0363  142.7719  164.4670 C.3     1  UNL1        0.0000
     21 C         138.8769  143.7799  163.7409 C.3     1  UNL1        0.0003
     22 C         142.4617  137.5389  157.8704 C.3     1  UNL1        0.0721
     23 C         141.2123  137.9921  157.1748 C.3     1  UNL1        0.0191
     24 C         139.9309  138.1219  157.9435 C.3     1  UNL1        0.0267
     25 C         139.5849  139.4198  158.6111 C.3     1  UNL1        0.1507
     26 S         139.7894  139.5813  160.0883 S.O2    1  UNL1       -0.0132
     27 O         140.0037  141.0536  159.8977 O.2     1  UNL1       -0.1731
     28 O         139.5752  138.1090  160.2789 O.2     1  UNL1       -0.1731
     29 C         139.9939  139.7427  161.5655 C.3     1  UNL1        0.1107
     30 C         140.2931  141.1988  161.3649 C.3     1  UNL1        0.0236
     31 C         139.6947  138.2867  161.7660 C.3     1  UNL1        0.0236
     32 C         140.1984  139.9042  163.0427 C.3     1  UNL1        0.0236
@<TRIPOS>BOND
     1    20    21    1
     2    21    19    1
     3    19    18    1
     4    18     8    1
     5     8     9   ar
     6     9    10   ar
     7    10     7    1
     8     7     1    1
     9     1     2    1
    10     2     3    1
    11     3     4    1
    12     4    22    1
    13    22    23    1
    14    23    24    1
    15    24    25    1
    16    25    26    1
    17    26    27    2
    18    26    28    2
    19    26    29    1
    20    29    30    1
    21    29    31    1
    22    29    32    1
    23     4     5    1
    24     5     6    1
    25    10    11   ar
    26    11    12   ar
    27    12    13   ar
    28    13    14   ar
    29    14    15   ar
    30    15    16   ar
    31    16    17   ar
    32    17     8   ar
    33     6     1    1
    34    16    11   ar
