@<TRIPOS>MOLECULE
*****
 34 39 0 0 0
SMALL
GASTEIGER

@<TRIPOS>ATOM
      1 C         139.2903  146.8180  161.1405 C.3     1  UNL1        0.0903
      2 N         139.7064  145.3852  160.9858 N.3     1  UNL1       -0.2601
      3 C         140.1515  145.3627  159.5536 C.3     1  UNL1        0.1187
      4 C         140.6912  144.7846  158.2790 C.ar    1  UNL1        0.0741
      5 C         140.5942  146.0721  157.5155 C.ar    1  UNL1        0.1147
      6 N         141.0863  145.8221  156.1208 N.ar    1  UNL1       -0.2226
      7 C         141.4875  144.3801  156.0223 C.ar    1  UNL1        0.1786
      8 N         141.2433  143.7389  157.3561 N.ar    1  UNL1       -0.3070
      9 C         141.7238  142.3847  156.9255 C.3     1  UNL1        0.1341
     10 C         142.0594  140.9283  157.0527 C.ar    1  UNL1        0.0035
     11 C         142.6233  139.8255  156.1393 C.ar    1  UNL1       -0.0015
     12 C         142.9291  138.3736  156.3599 C.ar    1  UNL1        0.0131
     13 C         142.6784  137.7496  157.7006 C.ar    1  UNL1        0.1028
     14 C         142.1218  138.5773  158.8209 C.ar    1  UNL1        0.1545
     15 C         142.1992  139.5914  157.7183 C.ar    1  UNL1        0.0358
     16 O         141.8390  138.0408  160.1928 O.3     1  UNL1       -0.4528
     17 C         141.3939  138.0632  161.6251 C.ar    1  UNL1        0.1454
     18 C         141.2630  136.9774  162.9624 C.ar    1  UNL1        0.0375
     19 C         140.7777  137.1907  164.3655 C.ar    1  UNL1        0.0032
     20 C         140.2974  138.5452  164.7952 C.ar    1  UNL1        0.0014
     21 C         139.8123  138.7576  166.1986 C.ar    1  UNL1        0.0001
     22 C         139.3318  140.1118  166.6293 C.ar    1  UNL1        0.0013
     23 C         139.3365  141.2536  165.6566 C.ar    1  UNL1        0.0149
     24 C         139.8216  141.0412  164.2532 C.ar    1  UNL1        0.0539
     25 C         140.3021  139.6870  163.8225 C.ar    1  UNL1        0.0167
     26 C         140.8542  138.6413  162.8996 C.ar    1  UNL1        0.0387
     27 N         139.4860  142.4976  164.1260 N.am    1  UNL1       -0.2575
     28 C         138.9468  143.6553  164.9128 C.3     1  UNL1        0.1001
     29 C         138.9150  144.8538  164.0114 C.3     1  UNL1        0.0472
     30 C         139.4236  144.8486  162.3577 C.3     1  UNL1        0.1373
     31 C         139.3462  143.8346  163.4604 C.2     1  UNL1        0.2439
     32 O         139.0633  144.1074  164.1540 O.2     1  UNL1       -0.2731
     33 C         142.9842  136.2977  157.9213 C.1     1  UNL1        0.1035
     34 N         143.2899  134.8459  158.1419 N.1     1  UNL1       -0.1907
@<TRIPOS>BOND
     1     1     2    1
     2     2     3    1
     3     3     4    1
     4     4     5   ar
     5     5     6   ar
     6     6     7   ar
     7     7     8   ar
     8     8     9    1
     9     9    10    1
    10    10    11   ar
    11    11    12   ar
    12    12    13   ar
    13    13    33    1
    14    33    34    3
    15    13    14   ar
    16    14    15   ar
    17    14    16    1
    18    16    17    1
    19    17    18   ar
    20    18    19   ar
    21    19    20   ar
    22    20    21   ar
    23    21    22   ar
    24    22    23   ar
    25    23    24   ar
    26    24    25   ar
    27    25    26   ar
    28    24    27    1
    29    27    28    1
    30    28    29    1
    31    30    29    1
    32    30    31    1
    33    31    32    2
    34    30     2    1
    35     8     4   ar
    36    15    10   ar
    37    26    17   ar
    38    31    27   am
    39    25    20   ar
@<TRIPOS>MOLECULE
*****
 34 39 0 0 0
SMALL
GASTEIGER

@<TRIPOS>ATOM
      1 C         139.9826  146.3380  157.1773 C.3     1  UNL1        0.0903
      2 N         140.4356  144.9315  157.4357 N.3     1  UNL1       -0.2601
      3 C         140.4237  144.3607  156.0487 C.3     1  UNL1        0.1187
      4 C         140.5903  143.3280  154.9736 C.ar    1  UNL1        0.0741
      5 C         140.1712  144.2453  153.8633 C.ar    1  UNL1        0.1147
      6 N         140.2321  143.4749  152.5777 N.ar    1  UNL1       -0.2226
      7 C         140.6888  142.0815  152.8934 C.ar    1  UNL1        0.1786
      8 N         140.9102  141.9907  154.3742 N.ar    1  UNL1       -0.3070
      9 C         141.3346  140.5523  154.3418 C.3     1  UNL1        0.1341
     10 C         141.7989  139.2319  154.8812 C.ar    1  UNL1        0.0035
     11 C         142.1370  137.8445  154.3073 C.ar    1  UNL1       -0.0015
     12 C         142.6011  136.5643  154.9364 C.ar    1  UNL1        0.0131
     13 C         142.8171  136.4923  156.4189 C.ar    1  UNL1        0.1028
     14 C         142.5691  137.7004  157.2726 C.ar    1  UNL1        0.1545
     15 C         142.2324  138.2305  155.9104 C.ar    1  UNL1        0.0358
     16 O         142.7578  137.7225  158.7604 O.3     1  UNL1       -0.4528
     17 C         142.7697  138.2934  160.1476 C.ar    1  UNL1        0.1454
     18 C         143.1324  137.7859  161.7586 C.ar    1  UNL1        0.0375
     19 C         143.0833  138.5250  163.0629 C.ar    1  UNL1        0.0032
     20 C         142.6588  139.9633  163.0943 C.ar    1  UNL1        0.0014
     21 C         142.6100  140.7016  164.3992 C.ar    1  UNL1        0.0001
     22 C         142.1857  142.1400  164.4316 C.ar    1  UNL1        0.0013
     23 C         141.8101  142.8401  163.1593 C.ar    1  UNL1        0.0149
     24 C         141.8588  142.1018  161.8545 C.ar    1  UNL1        0.0539
     25 C         142.2832  140.6634  161.8221 C.ar    1  UNL1        0.0167
     26 C         142.6031  139.3261  161.2226 C.ar    1  UNL1        0.0387
     27 N         141.3945  143.4222  161.3151 N.am    1  UNL1       -0.2575
     28 C         141.0373  144.8125  161.7502 C.3     1  UNL1        0.1001
     29 C         140.6447  145.5932  160.5311 C.3     1  UNL1        0.0472
     30 C         140.6243  144.9536  158.9237 C.3     1  UNL1        0.1373
     31 C         140.9610  144.4236  160.2859 C.2     1  UNL1        0.2439
     32 O         140.8836  144.9463  160.8829 O.2     1  UNL1       -0.2731
     33 C         143.2812  135.2120  157.0479 C.1     1  UNL1        0.1035
     34 N         143.7453  133.9318  157.6769 N.1     1  UNL1       -0.1907
@<TRIPOS>BOND
     1     1     2    1
     2     2     3    1
     3     3     4    1
     4     4     5   ar
     5     5     6   ar
     6     6     7   ar
     7     7     8   ar
     8     8     9    1
     9     9    10    1
    10    10    11   ar
    11    11    12   ar
    12    12    13   ar
    13    13    33    1
    14    33    34    3
    15    13    14   ar
    16    14    15   ar
    17    14    16    1
    18    16    17    1
    19    17    18   ar
    20    18    19   ar
    21    19    20   ar
    22    20    21   ar
    23    21    22   ar
    24    22    23   ar
    25    23    24   ar
    26    24    25   ar
    27    25    26   ar
    28    24    27    1
    29    27    28    1
    30    28    29    1
    31    30    29    1
    32    30    31    1
    33    31    32    2
    34    30     2    1
    35     8     4   ar
    36    15    10   ar
    37    26    17   ar
    38    31    27   am
    39    25    20   ar
@<TRIPOS>MOLECULE
*****
 34 39 0 0 0
SMALL
GASTEIGER

@<TRIPOS>ATOM
      1 C         138.3781  144.9565  155.5825 C.3     1  UNL1        0.0903
      2 N         139.1132  143.7341  156.0467 N.3     1  UNL1       -0.2601
      3 C         138.7702  142.7567  154.9618 C.3     1  UNL1        0.1187
      4 C         138.7662  141.4512  154.2232 C.ar    1  UNL1        0.0741
      5 C         137.8820  141.9448  153.1166 C.ar    1  UNL1        0.1147
      6 N         137.6712  140.8148  152.1529 N.ar    1  UNL1       -0.2226
      7 C         138.4251  139.6230  152.6638 C.ar    1  UNL1        0.1786
      8 N         139.1019  140.0163  153.9434 N.ar    1  UNL1       -0.3070
      9 C         139.7261  138.6704  154.1649 C.3     1  UNL1        0.1341
     10 C         140.5437  137.6185  154.8541 C.ar    1  UNL1        0.0035
     11 C         140.9125  136.1453  154.6047 C.ar    1  UNL1       -0.0015
     12 C         141.7509  135.1596  155.3634 C.ar    1  UNL1        0.0131
     13 C         142.4201  135.5709  156.6411 C.ar    1  UNL1        0.1028
     14 C         142.2511  136.9680  157.1604 C.ar    1  UNL1        0.1545
     15 C         141.4303  137.0207  155.9059 C.ar    1  UNL1        0.0358
     16 O         142.8808  137.4684  158.4264 O.3     1  UNL1       -0.4528
     17 C         143.2238  138.4459  159.5114 C.ar    1  UNL1        0.1454
     18 C         144.1414  138.4943  160.9743 C.ar    1  UNL1        0.0375
     19 C         144.3742  139.6012  161.9594 C.ar    1  UNL1        0.0032
     20 C         143.7496  140.9467  161.7370 C.ar    1  UNL1        0.0014
     21 C         143.9829  142.0531  162.7228 C.ar    1  UNL1        0.0001
     22 C         143.3587  143.3990  162.5012 C.ar    1  UNL1        0.0013
     23 C         142.5013  143.6385  161.2941 C.ar    1  UNL1        0.0149
     24 C         142.2680  142.5322  160.3084 C.ar    1  UNL1        0.0539
     25 C         142.8921  141.1863  160.5299 C.ar    1  UNL1        0.0167
     26 C         143.2277  139.7514  160.2500 C.ar    1  UNL1        0.0387
     27 N         141.4503  143.5841  159.6192 N.am    1  UNL1       -0.2575
     28 C         141.0205  145.0153  159.7496 C.3     1  UNL1        0.1001
     29 C         140.1501  145.3469  158.5739 C.3     1  UNL1        0.0472
     30 C         139.7429  144.2346  157.3128 C.3     1  UNL1        0.1373
     31 C         140.5636  144.1819  158.5673 C.2     1  UNL1        0.2439
     32 O         140.5884  144.8597  158.9862 O.2     1  UNL1       -0.2731
     33 C         143.2585  134.5852  157.3998 C.1     1  UNL1        0.1035
     34 N         144.0968  133.5996  158.1585 N.1     1  UNL1       -0.1907
@<TRIPOS>BOND
     1     1     2    1
     2     2     3    1
     3     3     4    1
     4     4     5   ar
     5     5     6   ar
     6     6     7   ar
     7     7     8   ar
     8     8     9    1
     9     9    10    1
    10    10    11   ar
    11    11    12   ar
    12    12    13   ar
    13    13    33    1
    14    33    34    3
    15    13    14   ar
    16    14    15   ar
    17    14    16    1
    18    16    17    1
    19    17    18   ar
    20    18    19   ar
    21    19    20   ar
    22    20    21   ar
    23    21    22   ar
    24    22    23   ar
    25    23    24   ar
    26    24    25   ar
    27    25    26   ar
    28    24    27    1
    29    27    28    1
    30    28    29    1
    31    30    29    1
    32    30    31    1
    33    31    32    2
    34    30     2    1
    35     8     4   ar
    36    15    10   ar
    37    26    17   ar
    38    31    27   am
    39    25    20   ar
@<TRIPOS>MOLECULE
*****
 34 39 0 0 0
SMALL
GASTEIGER

@<TRIPOS>ATOM
      1 C         142.9721  136.9412  157.8588 C.3     1  UNL1        0.0903
      2 N         142.4773  138.3520  157.9810 N.3     1  UNL1       -0.2601
      3 C         142.2370  138.7033  156.5426 C.3     1  UNL1        0.1187
      4 C         141.8402  139.5517  155.3709 C.ar    1  UNL1        0.0741
      5 C         142.1381  138.4918  154.3521 C.ar    1  UNL1        0.1147
      6 N         141.8293  139.0529  152.9957 N.ar    1  UNL1       -0.2226
      7 C         141.3406  140.4596  153.1762 C.ar    1  UNL1        0.1786
      8 N         141.3474  140.7678  154.6442 N.ar    1  UNL1       -0.3070
      9 C         140.8334  142.1666  154.4731 C.3     1  UNL1        0.1341
     10 C         140.3767  143.5351  154.8837 C.ar    1  UNL1        0.0035
     11 C         139.8667  144.8039  154.1776 C.ar    1  UNL1       -0.0015
     12 C         139.4267  146.1465  154.6815 C.ar    1  UNL1        0.0131
     13 C         139.4402  146.4366  156.1530 C.ar    1  UNL1        0.1028
     14 C         139.8937  145.3842  157.1209 C.ar    1  UNL1        0.1545
     15 C         140.0468  144.6649  155.8135 C.ar    1  UNL1        0.0358
     16 O         139.9409  145.5833  158.6068 O.3     1  UNL1       -0.4528
     17 C         140.1812  145.2320  160.0452 C.ar    1  UNL1        0.1454
     18 C         140.0428  145.9661  161.6028 C.ar    1  UNL1        0.0375
     19 C         140.3409  145.4383  162.9749 C.ar    1  UNL1        0.0032
     20 C         140.8547  144.0394  163.1449 C.ar    1  UNL1        0.0014
     21 C         141.1526  143.5124  164.5174 C.ar    1  UNL1        0.0001
     22 C         141.6665  142.1136  164.6885 C.ar    1  UNL1        0.0013
     23 C         141.8826  141.2417  163.4872 C.ar    1  UNL1        0.0149
     24 C         141.5847  141.7687  162.1148 C.ar    1  UNL1        0.0539
     25 C         141.0708  143.1675  161.9437 C.ar    1  UNL1        0.0167
     26 C         140.5780  144.3836  161.2169 C.ar    1  UNL1        0.0387
     27 N         142.0414  140.4002  161.7041 N.am    1  UNL1       -0.2575
     28 C         142.5489  139.1079  162.2721 C.3     1  UNL1        0.1001
     29 C         142.7951  138.1653  161.1317 C.3     1  UNL1        0.0472
     30 C         142.5245  138.5511  159.4670 C.3     1  UNL1        0.1373
     31 C         142.3714  139.2703  160.7744 C.2     1  UNL1        0.2439
     32 O         142.5736  138.8488  161.4201 O.2     1  UNL1       -0.2731
     33 C         139.0002  147.7792  156.6569 C.1     1  UNL1        0.1035
     34 N         138.5601  149.1218  157.1607 N.1     1  UNL1       -0.1907
@<TRIPOS>BOND
     1     1     2    1
     2     2     3    1
     3     3     4    1
     4     4     5   ar
     5     5     6   ar
     6     6     7   ar
     7     7     8   ar
     8     8     9    1
     9     9    10    1
    10    10    11   ar
    11    11    12   ar
    12    12    13   ar
    13    13    33    1
    14    33    34    3
    15    13    14   ar
    16    14    15   ar
    17    14    16    1
    18    16    17    1
    19    17    18   ar
    20    18    19   ar
    21    19    20   ar
    22    20    21   ar
    23    21    22   ar
    24    22    23   ar
    25    23    24   ar
    26    24    25   ar
    27    25    26   ar
    28    24    27    1
    29    27    28    1
    30    28    29    1
    31    30    29    1
    32    30    31    1
    33    31    32    2
    34    30     2    1
    35     8     4   ar
    36    15    10   ar
    37    26    17   ar
    38    31    27   am
    39    25    20   ar
@<TRIPOS>MOLECULE
*****
 34 39 0 0 0
SMALL
GASTEIGER

@<TRIPOS>ATOM
      1 C         136.6079  142.1293  155.5487 C.3     1  UNL1        0.0903
      2 N         137.6512  141.1594  156.0187 N.3     1  UNL1       -0.2601
      3 C         137.6230  140.1423  154.9165 C.3     1  UNL1        0.1187
      4 C         138.0061  138.9016  154.1655 C.ar    1  UNL1        0.0741
      5 C         137.0404  139.1408  153.0428 C.ar    1  UNL1        0.1147
      6 N         137.1798  138.0132  152.0635 N.ar    1  UNL1       -0.2226
      7 C         138.2316  137.0772  152.5809 C.ar    1  UNL1        0.1786
      8 N         138.7422  137.6263  153.8800 N.ar    1  UNL1       -0.3070
      9 C         139.7194  136.5103  154.1035 C.3     1  UNL1        0.1341
     10 C         140.7887  135.7237  154.8019 C.ar    1  UNL1        0.0035
     11 C         141.5669  134.4207  154.5473 C.ar    1  UNL1       -0.0015
     12 C         142.6358  133.7023  155.3164 C.ar    1  UNL1        0.0131
     13 C         143.1341  134.2665  156.6137 C.ar    1  UNL1        0.1028
     14 C         142.5636  135.5492  157.1422 C.ar    1  UNL1        0.1545
     15 C         141.7874  135.3863  155.8690 C.ar    1  UNL1        0.0358
     16 O         142.9989  136.1878  158.4277 O.3     1  UNL1       -0.4528
     17 C         143.0271  137.2049  159.5300 C.ar    1  UNL1        0.1454
     18 C         143.8631  137.4890  161.0148 C.ar    1  UNL1        0.0375
     19 C         143.7509  138.6004  162.0158 C.ar    1  UNL1        0.0032
     20 C         142.7735  139.7159  161.7915 C.ar    1  UNL1        0.0014
     21 C         142.6619  140.8269  162.7931 C.ar    1  UNL1        0.0001
     22 C         141.6848  141.9429  162.5696 C.ar    1  UNL1        0.0013
     23 C         140.8192  141.9479  161.3446 C.ar    1  UNL1        0.0149
     24 C         140.9308  140.8368  160.3430 C.ar    1  UNL1        0.0539
     25 C         141.9079  139.7209  160.5665 C.ar    1  UNL1        0.0167
     26 C         142.6440  138.4455  160.2809 C.ar    1  UNL1        0.0387
     27 N         139.8614  141.6234  159.6446 N.am    1  UNL1       -0.2575
     28 C         139.0391  142.8708  159.7784 C.3     1  UNL1        0.1001
     29 C         138.1343  142.9598  158.5854 C.3     1  UNL1        0.0472
     30 C         138.0866  141.7980  157.3043 C.3     1  UNL1        0.1373
     31 C         138.8627  141.9610  158.5775 C.2     1  UNL1        0.2439
     32 O         138.6848  142.6109  159.0034 O.2     1  UNL1       -0.2731
     33 C         144.2030  133.5482  157.3828 C.1     1  UNL1        0.1035
     34 N         145.2719  132.8298  158.1518 N.1     1  UNL1       -0.1907
@<TRIPOS>BOND
     1     1     2    1
     2     2     3    1
     3     3     4    1
     4     4     5   ar
     5     5     6   ar
     6     6     7   ar
     7     7     8   ar
     8     8     9    1
     9     9    10    1
    10    10    11   ar
    11    11    12   ar
    12    12    13   ar
    13    13    33    1
    14    33    34    3
    15    13    14   ar
    16    14    15   ar
    17    14    16    1
    18    16    17    1
    19    17    18   ar
    20    18    19   ar
    21    19    20   ar
    22    20    21   ar
    23    21    22   ar
    24    22    23   ar
    25    23    24   ar
    26    24    25   ar
    27    25    26   ar
    28    24    27    1
    29    27    28    1
    30    28    29    1
    31    30    29    1
    32    30    31    1
    33    31    32    2
    34    30     2    1
    35     8     4   ar
    36    15    10   ar
    37    26    17   ar
    38    31    27   am
    39    25    20   ar
@<TRIPOS>MOLECULE
*****
 34 39 0 0 0
SMALL
GASTEIGER

@<TRIPOS>ATOM
      1 C         141.0713  143.2741  163.5422 C.3     1  UNL1        0.0903
      2 N         141.1528  142.7894  162.1250 N.3     1  UNL1       -0.2601
      3 C         141.5928  141.3696  162.3261 C.3     1  UNL1        0.1187
      4 C         141.9976  139.9768  161.9437 C.ar    1  UNL1        0.0741
      5 C         142.2013  139.5209  163.3582 C.ar    1  UNL1        0.1147
      6 N         142.6352  138.0854  163.3245 N.ar    1  UNL1       -0.2226
      7 C         142.6997  137.6541  161.8893 C.ar    1  UNL1        0.1786
      8 N         142.3056  138.8231  161.0359 N.ar    1  UNL1       -0.3070
      9 C         142.4699  138.0841  159.7409 C.3     1  UNL1        0.1341
     10 C         142.4655  137.8724  158.2559 C.ar    1  UNL1        0.0035
     11 C         142.7719  136.7148  157.2892 C.ar    1  UNL1       -0.0015
     12 C         142.7387  136.5964  155.7943 C.ar    1  UNL1        0.0131
     13 C         142.3421  137.7761  154.9571 C.ar    1  UNL1        0.1028
     14 C         141.9787  139.0743  155.6148 C.ar    1  UNL1        0.1545
     15 C         142.2930  138.2201  156.8071 C.ar    1  UNL1        0.0358
     16 O         141.5705  140.3050  154.8607 O.3     1  UNL1       -0.4528
     17 C         141.1305  141.7249  154.6595 C.ar    1  UNL1        0.1454
     18 C         140.7460  142.7942  153.3583 C.ar    1  UNL1        0.0375
     19 C         140.3103  144.2295  153.3537 C.ar    1  UNL1        0.0032
     20 C         140.1463  144.9677  154.6492 C.ar    1  UNL1        0.0014
     21 C         139.7107  146.4030  154.6436 C.ar    1  UNL1        0.0001
     22 C         139.5464  147.1420  155.9386 C.ar    1  UNL1        0.0013
     23 C         139.8177  146.4457  157.2391 C.ar    1  UNL1        0.0149
     24 C         140.2534  145.0104  157.2447 C.ar    1  UNL1        0.0539
     25 C         140.4177  144.2714  155.9497 C.ar    1  UNL1        0.0167
     26 C         140.7257  143.1176  155.0420 C.ar    1  UNL1        0.0387
     27 N         140.2578  145.2221  158.7297 N.am    1  UNL1       -0.2575
     28 C         139.9889  146.2674  159.7714 C.3     1  UNL1        0.1001
     29 C         140.2370  145.6547  161.1178 C.3     1  UNL1        0.0472
     30 C         140.7446  144.0202  161.3709 C.3     1  UNL1        0.1373
     31 C         140.4303  144.8744  160.1786 C.2     1  UNL1        0.2439
     32 O         140.2110  145.6226  160.3447 O.2     1  UNL1       -0.2731
     33 C         142.3089  137.6577  153.4621 C.1     1  UNL1        0.1035
     34 N         142.2756  137.5393  151.9672 N.1     1  UNL1       -0.1907
@<TRIPOS>BOND
     1     1     2    1
     2     2     3    1
     3     3     4    1
     4     4     5   ar
     5     5     6   ar
     6     6     7   ar
     7     7     8   ar
     8     8     9    1
     9     9    10    1
    10    10    11   ar
    11    11    12   ar
    12    12    13   ar
    13    13    33    1
    14    33    34    3
    15    13    14   ar
    16    14    15   ar
    17    14    16    1
    18    16    17    1
    19    17    18   ar
    20    18    19   ar
    21    19    20   ar
    22    20    21   ar
    23    21    22   ar
    24    22    23   ar
    25    23    24   ar
    26    24    25   ar
    27    25    26   ar
    28    24    27    1
    29    27    28    1
    30    28    29    1
    31    30    29    1
    32    30    31    1
    33    31    32    2
    34    30     2    1
    35     8     4   ar
    36    15    10   ar
    37    26    17   ar
    38    31    27   am
    39    25    20   ar
@<TRIPOS>MOLECULE
*****
 34 39 0 0 0
SMALL
GASTEIGER

@<TRIPOS>ATOM
      1 C         141.4983  140.3292  163.8200 C.3     1  UNL1        0.0903
      2 N         141.4772  140.7519  162.3809 N.3     1  UNL1       -0.2601
      3 C         141.0311  142.1790  162.5016 C.3     1  UNL1        0.1187
      4 C         140.6447  143.5537  162.0424 C.ar    1  UNL1        0.0741
      5 C         140.3823  144.0704  163.4259 C.ar    1  UNL1        0.1147
      6 N         139.9522  145.5029  163.3118 N.ar    1  UNL1       -0.2226
      7 C         139.9488  145.8715  161.8578 C.ar    1  UNL1        0.1786
      8 N         140.3768  144.6668  161.0733 N.ar    1  UNL1       -0.3070
      9 C         140.2682  145.3489  159.7417 C.3     1  UNL1        0.1341
     10 C         140.3355  145.4960  158.2505 C.ar    1  UNL1        0.0035
     11 C         140.0716  146.6104  157.2224 C.ar    1  UNL1       -0.0015
     12 C         140.1679  146.6639  155.7265 C.ar    1  UNL1        0.0131
     13 C         140.5977  145.4492  154.9587 C.ar    1  UNL1        0.1028
     14 C         140.9313  144.1808  155.6867 C.ar    1  UNL1        0.1545
     15 C         140.5683  145.0858  156.8266 C.ar    1  UNL1        0.0358
     16 O         141.3692  142.9188  155.0046 O.3     1  UNL1       -0.4528
     17 C         141.8153  141.4917  154.8838 C.ar    1  UNL1        0.1454
     18 C         142.2528  140.3671  153.6476 C.ar    1  UNL1        0.0375
     19 C         142.6862  138.9332  153.7236 C.ar    1  UNL1        0.0032
     20 C         142.7945  138.2519  155.0556 C.ar    1  UNL1        0.0014
     21 C         143.2280  136.8179  155.1305 C.ar    1  UNL1        0.0001
     22 C         143.3366  136.1359  156.4621 C.ar    1  UNL1        0.0013
     23 C         143.0117  136.8878  157.7187 C.ar    1  UNL1        0.0149
     24 C         142.5782  138.3218  157.6437 C.ar    1  UNL1        0.0539
     25 C         142.4696  139.0038  156.3121 C.ar    1  UNL1        0.0167
     26 C         142.2017  140.1170  155.3430 C.ar    1  UNL1        0.0387
     27 N         142.5109  138.1747  159.1349 N.am    1  UNL1       -0.2575
     28 C         142.7343  137.1756  160.2314 C.3     1  UNL1        0.1001
     29 C         142.4306  137.8461  161.5383 C.3     1  UNL1        0.0472
     30 C         141.9151  139.4898  161.6987 C.3     1  UNL1        0.1373
     31 C         142.2781  138.5848  160.5589 C.2     1  UNL1        0.2439
     32 O         142.4892  137.8446  160.7663 O.2     1  UNL1       -0.2731
     33 C         140.6940  145.5026  153.4627 C.1     1  UNL1        0.1035
     34 N         140.7904  145.5560  151.9668 N.1     1  UNL1       -0.1907
@<TRIPOS>BOND
     1     1     2    1
     2     2     3    1
     3     3     4    1
     4     4     5   ar
     5     5     6   ar
     6     6     7   ar
     7     7     8   ar
     8     8     9    1
     9     9    10    1
    10    10    11   ar
    11    11    12   ar
    12    12    13   ar
    13    13    33    1
    14    33    34    3
    15    13    14   ar
    16    14    15   ar
    17    14    16    1
    18    16    17    1
    19    17    18   ar
    20    18    19   ar
    21    19    20   ar
    22    20    21   ar
    23    21    22   ar
    24    22    23   ar
    25    23    24   ar
    26    24    25   ar
    27    25    26   ar
    28    24    27    1
    29    27    28    1
    30    28    29    1
    31    30    29    1
    32    30    31    1
    33    31    32    2
    34    30     2    1
    35     8     4   ar
    36    15    10   ar
    37    26    17   ar
    38    31    27   am
    39    25    20   ar
@<TRIPOS>MOLECULE
*****
 34 39 0 0 0
SMALL
GASTEIGER

@<TRIPOS>ATOM
      1 C         143.3095  136.9934  160.1960 C.3     1  UNL1        0.0903
      2 N         142.8074  138.3549  159.8162 N.3     1  UNL1       -0.2601
      3 C         142.9086  138.2974  158.3207 C.3     1  UNL1        0.1187
      4 C         142.7985  138.7799  156.9047 C.ar    1  UNL1        0.0741
      5 C         143.3185  137.5068  156.3058 C.ar    1  UNL1        0.1147
      6 N         143.3353  137.6690  154.8147 N.ar    1  UNL1       -0.2226
      7 C         142.8256  139.0424  154.4921 C.ar    1  UNL1        0.1786
      8 N         142.4939  139.7290  155.7838 N.ar    1  UNL1       -0.3070
      9 C         142.0410  141.0001  155.1285 C.3     1  UNL1        0.1341
     10 C         141.5090  142.3996  155.0387 C.ar    1  UNL1        0.0035
     11 C         141.1832  143.4038  153.9190 C.ar    1  UNL1       -0.0015
     12 C         140.6456  144.8042  153.9272 C.ar    1  UNL1        0.0131
     13 C         140.3195  145.4747  155.2287 C.ar    1  UNL1        0.1028
     14 C         140.5309  144.7450  156.5221 C.ar    1  UNL1        0.1545
     15 C         140.9787  143.7146  155.5281 C.ar    1  UNL1        0.0358
     16 O         140.2338  145.3337  157.8693 O.3     1  UNL1       -0.4528
     17 C         140.1326  145.3912  159.3648 C.ar    1  UNL1        0.1454
     18 C         139.6412  146.5030  160.5922 C.ar    1  UNL1        0.0375
     19 C         139.6106  146.3764  162.0865 C.ar    1  UNL1        0.0032
     20 C         140.0637  145.1050  162.7409 C.ar    1  UNL1        0.0014
     21 C         140.0327  144.9793  164.2353 C.ar    1  UNL1        0.0001
     22 C         140.4856  143.7082  164.8905 C.ar    1  UNL1        0.0013
     23 C         140.9693  142.5628  164.0515 C.ar    1  UNL1        0.0149
     24 C         141.0002  142.6885  162.5571 C.ar    1  UNL1        0.0539
     25 C         140.5474  143.9596  161.9018 C.ar    1  UNL1        0.0167
     26 C         140.2427  144.9086  160.7808 C.ar    1  UNL1        0.0387
     27 N         141.5322  141.2889  162.6468 N.am    1  UNL1       -0.2575
     28 C         141.8874  140.2254  163.6432 C.3     1  UNL1        0.1001
     29 C         142.3860  139.0298  162.8870 C.3     1  UNL1        0.0472
     30 C         142.5103  138.9436  161.1635 C.3     1  UNL1        0.1373
     31 C         142.0625  139.9739  162.1575 C.2     1  UNL1        0.2439
     32 O         142.1074  139.7513  162.9216 O.2     1  UNL1       -0.2731
     33 C         139.7820  146.8751  155.2370 C.1     1  UNL1        0.1035
     34 N         139.2444  148.2754  155.2453 N.1     1  UNL1       -0.1907
@<TRIPOS>BOND
     1     1     2    1
     2     2     3    1
     3     3     4    1
     4     4     5   ar
     5     5     6   ar
     6     6     7   ar
     7     7     8   ar
     8     8     9    1
     9     9    10    1
    10    10    11   ar
    11    11    12   ar
    12    12    13   ar
    13    13    33    1
    14    33    34    3
    15    13    14   ar
    16    14    15   ar
    17    14    16    1
    18    16    17    1
    19    17    18   ar
    20    18    19   ar
    21    19    20   ar
    22    20    21   ar
    23    21    22   ar
    24    22    23   ar
    25    23    24   ar
    26    24    25   ar
    27    25    26   ar
    28    24    27    1
    29    27    28    1
    30    28    29    1
    31    30    29    1
    32    30    31    1
    33    31    32    2
    34    30     2    1
    35     8     4   ar
    36    15    10   ar
    37    26    17   ar
    38    31    27   am
    39    25    20   ar
@<TRIPOS>MOLECULE
*****
 34 39 0 0 0
SMALL
GASTEIGER

@<TRIPOS>ATOM
      1 C         139.9748  142.4679  160.6172 C.3     1  UNL1        0.0903
      2 N         140.0478  141.3808  159.5862 N.3     1  UNL1       -0.2601
      3 C         141.1385  140.5177  160.1477 C.3     1  UNL1        0.1187
      4 C         142.0918  139.3619  160.2216 C.ar    1  UNL1        0.0741
      5 C         142.7139  139.8047  161.5126 C.ar    1  UNL1        0.1147
      6 N         143.7690  138.8057  161.8853 N.ar    1  UNL1       -0.2226
      7 C         143.7989  137.7455  160.8246 C.ar    1  UNL1        0.1786
      8 N         142.7623  138.0892  159.7963 N.ar    1  UNL1       -0.3070
      9 C         143.0480  136.8935  158.9369 C.3     1  UNL1        0.1341
     10 C         142.9055  135.9568  157.7740 C.ar    1  UNL1        0.0035
     11 C         143.5670  134.6501  157.3014 C.ar    1  UNL1       -0.0015
     12 C         143.3534  133.7718  156.1043 C.ar    1  UNL1        0.0131
     13 C         142.3121  134.1315  155.0864 C.ar    1  UNL1        0.1028
     14 C         141.4843  135.3696  155.2655 C.ar    1  UNL1        0.1545
     15 C         142.3564  135.4217  156.4848 C.ar    1  UNL1        0.0358
     16 O         140.4221  135.8084  154.3017 O.3     1  UNL1       -0.4528
     17 C         139.3312  136.6715  153.7401 C.ar    1  UNL1        0.1454
     18 C         138.2781  136.7084  152.3712 C.ar    1  UNL1        0.0375
     19 C         137.2155  137.6868  151.9670 C.ar    1  UNL1        0.0032
     20 C         136.9305  138.8822  152.8271 C.ar    1  UNL1        0.0014
     21 C         135.8676  139.8602  152.4222 C.ar    1  UNL1        0.0001
     22 C         135.5819  141.0559  153.2816 C.ar    1  UNL1        0.0013
     23 C         136.3589  141.2737  154.5460 C.ar    1  UNL1        0.0149
     24 C         137.4218  140.2958  154.9510 C.ar    1  UNL1        0.0539
     25 C         137.7075  139.1000  154.0915 C.ar    1  UNL1        0.0167
     26 C         138.3781  137.8274  153.6664 C.ar    1  UNL1        0.0387
     27 N         137.5643  141.2325  156.1138 N.am    1  UNL1       -0.2575
     28 C         137.0010  142.5024  156.6794 C.3     1  UNL1        0.1001
     29 C         137.7254  142.8018  157.9582 C.3     1  UNL1        0.0472
     30 C         138.9855  141.8197  158.6224 C.3     1  UNL1        0.1373
     31 C         138.1134  141.7676  157.4031 C.2     1  UNL1        0.2439
     32 O         137.5934  142.3675  157.3310 O.2     1  UNL1       -0.2731
     33 C         142.0985  133.2533  153.8893 C.1     1  UNL1        0.1035
     34 N         141.8850  132.3751  152.6921 N.1     1  UNL1       -0.1907
@<TRIPOS>BOND
     1     1     2    1
     2     2     3    1
     3     3     4    1
     4     4     5   ar
     5     5     6   ar
     6     6     7   ar
     7     7     8   ar
     8     8     9    1
     9     9    10    1
    10    10    11   ar
    11    11    12   ar
    12    12    13   ar
    13    13    33    1
    14    33    34    3
    15    13    14   ar
    16    14    15   ar
    17    14    16    1
    18    16    17    1
    19    17    18   ar
    20    18    19   ar
    21    19    20   ar
    22    20    21   ar
    23    21    22   ar
    24    22    23   ar
    25    23    24   ar
    26    24    25   ar
    27    25    26   ar
    28    24    27    1
    29    27    28    1
    30    28    29    1
    31    30    29    1
    32    30    31    1
    33    31    32    2
    34    30     2    1
    35     8     4   ar
    36    15    10   ar
    37    26    17   ar
    38    31    27   am
    39    25    20   ar
