@<TRIPOS>MOLECULE
*****
 35 38 0 0 0
SMALL
GASTEIGER

@<TRIPOS>ATOM
      1 C         143.0624  143.2359  162.6611 C.ar    1  UNL1        0.0388
      2 C         144.3597  143.3246  163.4089 C.ar    1  UNL1        0.0028
      3 C         144.3921  143.0715  164.8871 C.ar    1  UNL1       -0.0044
      4 C         143.1271  142.7297  165.6174 C.ar    1  UNL1       -0.0247
      5 C         141.8300  142.6411  164.8695 C.ar    1  UNL1       -0.0246
      6 C         141.7975  142.8941  163.3914 C.ar    1  UNL1       -0.0014
      7 C         140.4648  142.3172  165.4001 C.3     1  UNL1        0.0433
      8 C         140.0598  142.0021  166.8096 C.3     1  UNL1        0.0769
      9 N         140.9198  141.9330  168.0365 N.3     1  UNL1       -0.2691
     10 C         142.3973  142.1619  168.1572 C.3     1  UNL1        0.0769
     11 C         143.3797  142.5165  167.0805 C.3     1  UNL1        0.0433
     12 C         142.3772  144.3158  158.9965 C.ar    1  UNL1        0.2600
     13 N         142.0354  144.3453  160.4567 N.ar    1  UNL1       -0.1870
     14 C         143.0301  143.4891  161.1830 C.ar    1  UNL1        0.2036
     15 N         143.9867  142.9305  160.1716 N.ar    1  UNL1       -0.0556
     16 O         143.5832  143.4415  158.8202 O.2     1  UNL1       -0.3324
     17 C         140.1721  146.4721  155.7196 C.ar    1  UNL1        0.1479
     18 C         139.6715  146.5413  157.1319 C.ar    1  UNL1        0.0377
     19 C         140.4066  145.8226  158.2242 C.ar    1  UNL1        0.0079
     20 C         141.6421  145.0346  157.9041 C.ar    1  UNL1        0.0569
     21 C         142.1426  144.9653  156.4918 C.ar    1  UNL1        0.0181
     22 C         141.4076  145.6841  155.3995 C.ar    1  UNL1        0.1024
     23 C         141.9081  145.6148  153.9872 C.1     1  UNL1        0.1035
     24 N         142.4086  145.5456  152.5748 N.1     1  UNL1       -0.1907
     25 O         139.4370  147.1908  154.6273 O.3     1  UNL1       -0.4785
     26 C         138.8619  149.6177  155.3553 C.3     1  UNL1        0.0472
     27 C         139.6050  148.6719  154.4589 C.3     1  UNL1        0.1662
     28 C         140.5160  149.2072  153.3944 C.3     1  UNL1        0.0472
     29 C         140.2082  141.5895  169.3116 C.3     1  UNL1        0.1166
     30 C         140.1409  142.5911  170.4262 C.3     1  UNL1        0.1555
     31 O         140.4674  142.1745  171.8297 O.3     1  UNL1       -0.3805
     32 H         139.8033  141.5399  172.1414 H       1  UNL1        0.2105
     33 C         139.5639  140.2444  169.4721 C.3     1  UNL1        0.1555
     34 O         138.7434  139.9466  170.6919 O.3     1  UNL1       -0.3805
     35 H         139.3162  139.9466  171.4748 H       1  UNL1        0.2105
@<TRIPOS>BOND
     1    26    27    1
     2    27    28    1
     3    27    25    1
     4    25    17    1
     5    17    18   ar
     6    18    19   ar
     7    19    20   ar
     8    20    12    1
     9    12    13   ar
    10    13    14   ar
    11    14     1    1
    12     1     2   ar
    13     2     3   ar
    14     3     4   ar
    15     4     5   ar
    16     5     6   ar
    17     5     7    1
    18     7     8    1
    19     8     9    1
    20     9    29    1
    21    29    30    1
    22    30    31    1
    23    29    33    1
    24    33    34    1
    25     9    10    1
    26    10    11    1
    27    14    15   ar
    28    15    16   ar
    29    20    21   ar
    30    21    22   ar
    31    22    23    1
    32    23    24    3
    33    22    17   ar
    34    16    12   ar
    35     6     1   ar
    36    11     4    1
    37    31    32    1
    38    34    35    1
@<TRIPOS>MOLECULE
*****
 35 38 0 0 0
SMALL
GASTEIGER

@<TRIPOS>ATOM
      1 C         141.4982  144.4612  162.6013 C.ar    1  UNL1        0.0388
      2 C         142.9724  144.1866  162.6346 C.ar    1  UNL1        0.0028
      3 C         143.5915  143.5605  163.8490 C.ar    1  UNL1       -0.0044
      4 C         142.7362  143.2090  165.0302 C.ar    1  UNL1       -0.0247
      5 C         141.2621  143.4837  164.9969 C.ar    1  UNL1       -0.0246
      6 C         140.6430  144.1098  163.7825 C.ar    1  UNL1       -0.0014
      7 C         140.2362  143.2137  166.0575 C.3     1  UNL1        0.0433
      8 C         140.4314  142.6024  167.4134 C.3     1  UNL1        0.0769
      9 N         141.7004  142.1101  168.0433 N.3     1  UNL1       -0.2691
     10 C         143.0879  142.1075  167.4732 C.3     1  UNL1        0.0769
     11 C         143.5489  142.5966  166.1322 C.3     1  UNL1        0.0433
     12 C         140.4356  145.7116  159.0839 C.ar    1  UNL1        0.2600
     13 N         141.3388  144.9066  159.9705 N.ar    1  UNL1       -0.1870
     14 C         140.8792  145.0873  161.3869 C.ar    1  UNL1        0.2036
     15 N         139.6920  146.0040  161.3756 N.ar    1  UNL1       -0.0556
     16 O         139.4178  146.3899  159.9522 O.2     1  UNL1       -0.3324
     17 C         140.7282  146.0351  154.6050 C.ar    1  UNL1        0.1479
     18 C         139.5769  146.6679  155.3291 C.ar    1  UNL1        0.0377
     19 C         139.4794  146.5600  156.8220 C.ar    1  UNL1        0.0079
     20 C         140.5331  145.8194  157.5909 C.ar    1  UNL1        0.0569
     21 C         141.6844  145.1867  156.8668 C.ar    1  UNL1        0.0181
     22 C         141.7819  145.2945  155.3739 C.ar    1  UNL1        0.1024
     23 C         142.9331  144.6618  154.6498 C.1     1  UNL1        0.1035
     24 N         144.0844  144.0290  153.9258 N.1     1  UNL1       -0.1907
     25 O         140.8257  146.1429  153.1121 O.3     1  UNL1       -0.4785
     26 C         140.6619  148.6306  152.3808 C.3     1  UNL1        0.0472
     27 C         141.4469  147.3568  152.4869 C.3     1  UNL1        0.1662
     28 C         142.8528  147.2967  151.9678 C.3     1  UNL1        0.0472
     29 C         141.5641  141.5457  169.4264 C.3     1  UNL1        0.1166
     30 C         142.5046  141.9819  170.5106 C.3     1  UNL1        0.1555
     31 O         141.9782  142.2897  171.8811 O.3     1  UNL1       -0.3805
     32 H         141.4051  143.0711  171.8394 H       1  UNL1        0.2105
     33 C         140.4873  140.5451  169.7254 C.3     1  UNL1        0.1555
     34 O         140.1948  140.1598  171.1452 O.3     1  UNL1       -0.3805
     35 H         140.9588  139.6921  171.5173 H       1  UNL1        0.2105
@<TRIPOS>BOND
     1    26    27    1
     2    27    28    1
     3    27    25    1
     4    25    17    1
     5    17    18   ar
     6    18    19   ar
     7    19    20   ar
     8    20    12    1
     9    12    13   ar
    10    13    14   ar
    11    14     1    1
    12     1     2   ar
    13     2     3   ar
    14     3     4   ar
    15     4     5   ar
    16     5     6   ar
    17     5     7    1
    18     7     8    1
    19     8     9    1
    20     9    29    1
    21    29    30    1
    22    30    31    1
    23    29    33    1
    24    33    34    1
    25     9    10    1
    26    10    11    1
    27    14    15   ar
    28    15    16   ar
    29    20    21   ar
    30    21    22   ar
    31    22    23    1
    32    23    24    3
    33    22    17   ar
    34    16    12   ar
    35     6     1   ar
    36    11     4    1
    37    31    32    1
    38    34    35    1
@<TRIPOS>MOLECULE
*****
 35 38 0 0 0
SMALL
GASTEIGER

@<TRIPOS>ATOM
      1 C         143.3808  141.3053  162.4418 C.ar    1  UNL1        0.0388
      2 C         143.5917  139.8209  162.4882 C.ar    1  UNL1        0.0028
      3 C         143.5050  139.0917  163.7962 C.ar    1  UNL1       -0.0044
      4 C         143.2074  139.8468  165.0576 C.ar    1  UNL1       -0.0247
      5 C         142.9966  141.3311  165.0111 C.ar    1  UNL1       -0.0246
      6 C         143.0833  142.0604  163.7032 C.ar    1  UNL1       -0.0014
      7 C         142.6917  142.2684  166.1419 C.3     1  UNL1        0.0433
      8 C         142.5223  141.9526  167.5986 C.3     1  UNL1        0.0769
      9 N         142.6160  140.6217  168.2840 N.3     1  UNL1       -0.2691
     10 C         142.9023  139.2778  167.6823 C.3     1  UNL1        0.0769
     11 C         143.1655  138.9330  166.2464 C.3     1  UNL1        0.0433
     12 C         144.0566  142.6238  158.8543 C.ar    1  UNL1        0.2600
     13 N         144.2557  141.6012  159.9334 N.ar    1  UNL1       -0.1870
     14 C         143.4675  142.0345  161.1338 C.ar    1  UNL1        0.2036
     15 N         142.7813  143.3250  160.7966 N.ar    1  UNL1       -0.0556
     16 O         143.1454  143.6893  159.3877 O.2     1  UNL1       -0.3324
     17 C         145.8740  142.5149  154.7390 C.ar    1  UNL1        0.1479
     18 C         144.4079  142.7856  154.9045 C.ar    1  UNL1        0.0377
     19 C         143.8021  142.8219  156.2763 C.ar    1  UNL1        0.0079
     20 C         144.6624  142.5875  157.4825 C.ar    1  UNL1        0.0569
     21 C         146.1285  142.3168  157.3170 C.ar    1  UNL1        0.0181
     22 C         146.7343  142.2805  155.9452 C.ar    1  UNL1        0.1024
     23 C         148.2003  142.0098  155.7797 C.1     1  UNL1        0.1035
     24 N         149.6664  141.7391  155.6142 N.1     1  UNL1       -0.1907
     25 O         146.4798  142.4786  153.3673 O.3     1  UNL1       -0.4785
     26 C         147.0260  145.0095  153.1513 C.3     1  UNL1        0.0472
     27 C         147.4033  143.5752  152.9261 C.3     1  UNL1        0.1662
     28 C         148.7040  143.2376  152.2597 C.3     1  UNL1        0.0472
     29 C         142.3942  140.6367  169.7674 C.3     1  UNL1        0.1166
     30 C         142.8038  139.4573  170.5990 C.3     1  UNL1        0.1555
     31 O         143.9953  139.5560  171.5050 O.3     1  UNL1       -0.3805
     32 H         144.7984  139.6657  170.9722 H       1  UNL1        0.2105
     33 C         141.7627  141.8309  170.4194 C.3     1  UNL1        0.1555
     34 O         142.1764  142.2364  171.8030 O.3     1  UNL1       -0.3805
     35 H         141.9126  141.5486  172.4340 H       1  UNL1        0.2105
@<TRIPOS>BOND
     1    26    27    1
     2    27    28    1
     3    27    25    1
     4    25    17    1
     5    17    18   ar
     6    18    19   ar
     7    19    20   ar
     8    20    12    1
     9    12    13   ar
    10    13    14   ar
    11    14     1    1
    12     1     2   ar
    13     2     3   ar
    14     3     4   ar
    15     4     5   ar
    16     5     6   ar
    17     5     7    1
    18     7     8    1
    19     8     9    1
    20     9    29    1
    21    29    30    1
    22    30    31    1
    23    29    33    1
    24    33    34    1
    25     9    10    1
    26    10    11    1
    27    14    15   ar
    28    15    16   ar
    29    20    21   ar
    30    21    22   ar
    31    22    23    1
    32    23    24    3
    33    22    17   ar
    34    16    12   ar
    35     6     1   ar
    36    11     4    1
    37    31    32    1
    38    34    35    1
@<TRIPOS>MOLECULE
*****
 35 38 0 0 0
SMALL
GASTEIGER

@<TRIPOS>ATOM
      1 C         138.7592  140.5845  163.1275 C.ar    1  UNL1        0.0388
      2 C         138.2128  139.3291  163.7403 C.ar    1  UNL1        0.0028
      3 C         138.4050  139.0638  165.2041 C.ar    1  UNL1       -0.0044
      4 C         139.1436  140.0539  166.0551 C.ar    1  UNL1       -0.0247
      5 C         139.6900  141.3092  165.4424 C.ar    1  UNL1       -0.0246
      6 C         139.4979  141.5746  163.9786 C.ar    1  UNL1       -0.0014
      7 C         140.4509  142.4191  166.1052 C.3     1  UNL1        0.0433
      8 C         140.8533  142.5476  167.5446 C.3     1  UNL1        0.0769
      9 N         140.5941  141.5981  168.6764 N.3     1  UNL1       -0.2691
     10 C         139.8686  140.2855  168.6487 C.3     1  UNL1        0.0769
     11 C         139.2231  139.5983  167.4821 C.3     1  UNL1        0.0433
     12 C         138.6989  141.8718  159.4664 C.ar    1  UNL1        0.2600
     13 N         139.1460  141.9988  160.8925 N.ar    1  UNL1       -0.1870
     14 C         138.5670  140.8498  161.6638 C.ar    1  UNL1        0.2036
     15 N         137.7622  140.0128  160.7143 N.ar    1  UNL1       -0.0556
     16 O         137.8437  140.6445  159.3561 O.2     1  UNL1       -0.3324
     17 C         139.7405  144.6801  156.1079 C.ar    1  UNL1        0.1479
     18 C         140.6480  144.5632  157.2966 C.ar    1  UNL1        0.0377
     19 C         140.3008  143.6271  158.4160 C.ar    1  UNL1        0.0079
     20 C         139.0461  142.8080  158.3469 C.ar    1  UNL1        0.0569
     21 C         138.1387  142.9248  157.1582 C.ar    1  UNL1        0.0181
     22 C         138.4859  143.8609  156.0387 C.ar    1  UNL1        0.1024
     23 C         137.5784  143.9778  154.8501 C.1     1  UNL1        0.1035
     24 N         136.6710  144.0947  153.6615 N.1     1  UNL1       -0.1907
     25 O         140.0877  145.6162  154.9885 O.3     1  UNL1       -0.4785
     26 C         138.9574  147.5735  156.2698 C.3     1  UNL1        0.0472
     27 C         139.7429  147.0722  155.0942 C.3     1  UNL1        0.1662
     28 C         140.1836  148.0269  154.0246 C.3     1  UNL1        0.0472
     29 C         141.1315  142.0165  170.0129 C.3     1  UNL1        0.1166
     30 C         140.9054  141.1506  171.2167 C.3     1  UNL1        0.1555
     31 O         142.0716  140.6960  172.0434 O.3     1  UNL1       -0.3805
     32 H         142.6281  140.1005  171.5175 H       1  UNL1        0.2105
     33 C         141.8951  143.3008  170.1456 C.3     1  UNL1        0.1555
     34 O         143.0911  143.3725  171.0481 O.3     1  UNL1       -0.3805
     35 H         142.8089  143.2556  171.9687 H       1  UNL1        0.2105
@<TRIPOS>BOND
     1    26    27    1
     2    27    28    1
     3    27    25    1
     4    25    17    1
     5    17    18   ar
     6    18    19   ar
     7    19    20   ar
     8    20    12    1
     9    12    13   ar
    10    13    14   ar
    11    14     1    1
    12     1     2   ar
    13     2     3   ar
    14     3     4   ar
    15     4     5   ar
    16     5     6   ar
    17     5     7    1
    18     7     8    1
    19     8     9    1
    20     9    29    1
    21    29    30    1
    22    30    31    1
    23    29    33    1
    24    33    34    1
    25     9    10    1
    26    10    11    1
    27    14    15   ar
    28    15    16   ar
    29    20    21   ar
    30    21    22   ar
    31    22    23    1
    32    23    24    3
    33    22    17   ar
    34    16    12   ar
    35     6     1   ar
    36    11     4    1
    37    31    32    1
    38    34    35    1
@<TRIPOS>MOLECULE
*****
 35 38 0 0 0
SMALL
GASTEIGER

@<TRIPOS>ATOM
      1 C         141.4830  144.1983  163.1976 C.ar    1  UNL1        0.0388
      2 C         142.9600  144.3153  163.4316 C.ar    1  UNL1        0.0028
      3 C         143.5740  143.7174  164.6627 C.ar    1  UNL1       -0.0044
      4 C         142.7109  143.0025  165.6598 C.ar    1  UNL1       -0.0247
      5 C         141.2340  142.8855  165.4257 C.ar    1  UNL1       -0.0246
      6 C         140.6200  143.4833  164.1947 C.ar    1  UNL1       -0.0014
      7 C         140.2006  142.2199  166.2856 C.3     1  UNL1        0.0433
      8 C         140.3891  141.5070  167.5919 C.3     1  UNL1        0.0769
      9 N         141.6574  141.2836  168.3608 N.3     1  UNL1       -0.2691
     10 C         143.0506  141.7179  168.0135 C.3     1  UNL1        0.0769
     11 C         143.5194  142.4829  166.8114 C.3     1  UNL1        0.0433
     12 C         140.3079  145.2326  159.6459 C.ar    1  UNL1        0.2600
     13 N         141.1288  144.3652  160.5534 N.ar    1  UNL1       -0.1870
     14 C         140.8690  144.7962  161.9665 C.ar    1  UNL1        0.2036
     15 N         139.8876  145.9300  161.9323 N.ar    1  UNL1       -0.0556
     16 O         139.5408  146.1997  160.4980 O.2     1  UNL1       -0.3324
     17 C         140.1707  144.9783  155.1552 C.ar    1  UNL1        0.1479
     18 C         140.3623  143.7344  155.9713 C.ar    1  UNL1        0.0377
     19 C         140.4081  143.8192  157.4682 C.ar    1  UNL1        0.0079
     20 C         140.2622  145.1478  158.1489 C.ar    1  UNL1        0.0569
     21 C         140.0706  146.3917  157.3328 C.ar    1  UNL1        0.0181
     22 C         140.0249  146.3070  155.8359 C.ar    1  UNL1        0.1024
     23 C         139.8333  147.5508  155.0198 C.1     1  UNL1        0.1035
     24 N         139.6417  148.7947  154.2037 N.1     1  UNL1       -0.1907
     25 O         140.1250  144.8936  153.6583 O.3     1  UNL1       -0.4785
     26 C         142.3305  145.9206  152.7465 C.3     1  UNL1        0.0472
     27 C         141.3971  144.7534  152.8758 C.3     1  UNL1        0.1662
     28 C         141.7358  143.4463  152.2228 C.3     1  UNL1        0.0472
     29 C         141.5137  140.5257  169.6472 C.3     1  UNL1        0.1166
     30 C         140.4141  140.8762  170.6054 C.3     1  UNL1        0.1555
     31 O         140.5872  140.6177  172.0728 O.3     1  UNL1       -0.3805
     32 H         140.6398  139.6617  172.2288 H       1  UNL1        0.2105
     33 C         142.4695  139.4172  169.9755 C.3     1  UNL1        0.1555
     34 O         143.4300  139.5687  171.1176 O.3     1  UNL1       -0.3805
     35 H         144.0636  140.2749  170.9158 H       1  UNL1        0.2105
@<TRIPOS>BOND
     1    26    27    1
     2    27    28    1
     3    27    25    1
     4    25    17    1
     5    17    18   ar
     6    18    19   ar
     7    19    20   ar
     8    20    12    1
     9    12    13   ar
    10    13    14   ar
    11    14     1    1
    12     1     2   ar
    13     2     3   ar
    14     3     4   ar
    15     4     5   ar
    16     5     6   ar
    17     5     7    1
    18     7     8    1
    19     8     9    1
    20     9    29    1
    21    29    30    1
    22    30    31    1
    23    29    33    1
    24    33    34    1
    25     9    10    1
    26    10    11    1
    27    14    15   ar
    28    15    16   ar
    29    20    21   ar
    30    21    22   ar
    31    22    23    1
    32    23    24    3
    33    22    17   ar
    34    16    12   ar
    35     6     1   ar
    36    11     4    1
    37    31    32    1
    38    34    35    1
@<TRIPOS>MOLECULE
*****
 35 38 0 0 0
SMALL
GASTEIGER

@<TRIPOS>ATOM
      1 C         141.4191  143.8005  162.5345 C.ar    1  UNL1        0.0388
      2 C         140.0196  144.0937  162.9878 C.ar    1  UNL1        0.0028
      3 C         139.6267  143.8495  164.4148 C.ar    1  UNL1       -0.0044
      4 C         140.6335  143.3120  165.3883 C.ar    1  UNL1       -0.0247
      5 C         142.0328  143.0188  164.9350 C.ar    1  UNL1       -0.0246
      6 C         142.4257  143.2630  163.5081 C.ar    1  UNL1       -0.0014
      7 C         143.1825  142.4831  165.7358 C.3     1  UNL1        0.0433
      8 C         143.2165  142.1083  167.1880 C.3     1  UNL1        0.0769
      9 N         142.1095  142.1768  168.1976 N.3     1  UNL1       -0.2691
     10 C         140.6948  142.6368  168.0048 C.3     1  UNL1        0.0769
     11 C         140.0379  143.1421  166.7545 C.3     1  UNL1        0.0433
     12 C         141.7628  144.7688  158.7916 C.ar    1  UNL1        0.2600
     13 N         140.9855  144.7517  160.0744 N.ar    1  UNL1       -0.1870
     14 C         141.8118  144.0447  161.1076 C.ar    1  UNL1        0.2036
     15 N         143.0997  143.6248  160.4634 N.ar    1  UNL1       -0.0556
     16 O         143.0694  144.0724  159.0319 O.2     1  UNL1       -0.3324
     17 C         140.4119  146.5896  154.9045 C.ar    1  UNL1        0.1479
     18 C         139.6418  146.8540  156.1642 C.ar    1  UNL1        0.0377
     19 C         140.0920  146.2470  157.4599 C.ar    1  UNL1        0.0079
     20 C         141.3125  145.3757  157.4959 C.ar    1  UNL1        0.0569
     21 C         142.0826  145.1113  156.2361 C.ar    1  UNL1        0.0181
     22 C         141.6324  145.7183  154.9404 C.ar    1  UNL1        0.1024
     23 C         142.4025  145.4539  153.6807 C.1     1  UNL1        0.1035
     24 N         143.1727  145.1895  152.4209 N.1     1  UNL1       -0.1907
     25 O         139.9616  147.1965  153.6088 O.3     1  UNL1       -0.4785
     26 C         141.4339  148.8013  152.1919 C.3     1  UNL1        0.0472
     27 C         140.3868  148.5882  153.2447 C.3     1  UNL1        0.1662
     28 C         139.7649  149.7667  153.9334 C.3     1  UNL1        0.0472
     29 C         142.4639  141.7254  169.5835 C.3     1  UNL1        0.1166
     30 C         142.5897  142.7301  170.6904 C.3     1  UNL1        0.1555
     31 O         142.1588  142.3713  172.0816 O.3     1  UNL1       -0.3805
     32 H         141.1989  142.2322  172.0970 H       1  UNL1        0.2105
     33 C         142.6924  140.2694  169.8627 C.3     1  UNL1        0.1555
     34 O         143.4841  139.8518  171.0664 O.3     1  UNL1       -0.3805
     35 H         144.4035  140.1441  170.9660 H       1  UNL1        0.2105
@<TRIPOS>BOND
     1    26    27    1
     2    27    28    1
     3    27    25    1
     4    25    17    1
     5    17    18   ar
     6    18    19   ar
     7    19    20   ar
     8    20    12    1
     9    12    13   ar
    10    13    14   ar
    11    14     1    1
    12     1     2   ar
    13     2     3   ar
    14     3     4   ar
    15     4     5   ar
    16     5     6   ar
    17     5     7    1
    18     7     8    1
    19     8     9    1
    20     9    29    1
    21    29    30    1
    22    30    31    1
    23    29    33    1
    24    33    34    1
    25     9    10    1
    26    10    11    1
    27    14    15   ar
    28    15    16   ar
    29    20    21   ar
    30    21    22   ar
    31    22    23    1
    32    23    24    3
    33    22    17   ar
    34    16    12   ar
    35     6     1   ar
    36    11     4    1
    37    31    32    1
    38    34    35    1
@<TRIPOS>MOLECULE
*****
 35 38 0 0 0
SMALL
GASTEIGER

@<TRIPOS>ATOM
      1 C         138.7443  141.2448  163.0916 C.ar    1  UNL1        0.0388
      2 C         138.2210  139.9265  163.5797 C.ar    1  UNL1        0.0028
      3 C         138.4287  139.5196  165.0085 C.ar    1  UNL1       -0.0044
      4 C         139.1599  140.4310  165.9491 C.ar    1  UNL1       -0.0247
      5 C         139.6832  141.7492  165.4610 C.ar    1  UNL1       -0.0246
      6 C         139.4755  142.1562  164.0324 C.ar    1  UNL1       -0.0014
      7 C         140.4333  142.7989  166.2263 C.3     1  UNL1        0.0433
      8 C         140.8453  142.7895  167.6686 C.3     1  UNL1        0.0769
      9 N         140.6090  141.7282  168.7018 N.3     1  UNL1       -0.2691
     10 C         139.9023  140.4140  168.5480 C.3     1  UNL1        0.0769
     11 C         139.2573  139.8367  167.3229 C.3     1  UNL1        0.0433
     12 C         138.3514  141.5734  159.2442 C.ar    1  UNL1        0.2600
     13 N         138.6321  140.7513  160.4670 N.ar    1  UNL1       -0.1870
     14 C         138.5366  141.6517  161.6629 C.ar    1  UNL1        0.2036
     15 N         138.1967  143.0303  161.1792 N.ar    1  UNL1       -0.0556
     16 O         138.0823  142.9819  159.6843 O.2     1  UNL1       -0.3324
     17 C         138.3216  140.0770  155.0004 C.ar    1  UNL1        0.1479
     18 C         137.7010  141.4015  155.3330 C.ar    1  UNL1        0.0377
     19 C         137.7109  141.9003  156.7476 C.ar    1  UNL1        0.0079
     20 C         138.3414  141.0746  157.8296 C.ar    1  UNL1        0.0569
     21 C         138.9620  139.7501  157.4969 C.ar    1  UNL1        0.0181
     22 C         138.9521  139.2513  156.0824 C.ar    1  UNL1        0.1024
     23 C         139.5727  137.9268  155.7497 C.1     1  UNL1        0.1035
     24 N         140.1933  136.6024  155.4171 N.1     1  UNL1       -0.1907
     25 O         138.3116  139.5782  153.5858 O.3     1  UNL1       -0.4785
     26 C         136.9959  137.4084  153.0281 C.3     1  UNL1        0.0472
     27 C         137.0886  138.9056  153.0363 C.3     1  UNL1        0.1662
     28 C         135.9584  139.7299  152.4952 C.3     1  UNL1        0.0472
     29 C         141.1510  142.0194  170.0698 C.3     1  UNL1        0.1166
     30 C         141.0013  141.0076  171.1670 C.3     1  UNL1        0.1555
     31 O         142.1829  140.6401  172.0148 O.3     1  UNL1       -0.3805
     32 H         142.8455  140.1897  171.4681 H       1  UNL1        0.2105
     33 C         141.8429  143.3226  170.3406 C.3     1  UNL1        0.1555
     34 O         143.1029  143.3479  171.1541 O.3     1  UNL1       -0.3805
     35 H         142.9056  143.0766  172.0643 H       1  UNL1        0.2105
@<TRIPOS>BOND
     1    26    27    1
     2    27    28    1
     3    27    25    1
     4    25    17    1
     5    17    18   ar
     6    18    19   ar
     7    19    20   ar
     8    20    12    1
     9    12    13   ar
    10    13    14   ar
    11    14     1    1
    12     1     2   ar
    13     2     3   ar
    14     3     4   ar
    15     4     5   ar
    16     5     6   ar
    17     5     7    1
    18     7     8    1
    19     8     9    1
    20     9    29    1
    21    29    30    1
    22    30    31    1
    23    29    33    1
    24    33    34    1
    25     9    10    1
    26    10    11    1
    27    14    15   ar
    28    15    16   ar
    29    20    21   ar
    30    21    22   ar
    31    22    23    1
    32    23    24    3
    33    22    17   ar
    34    16    12   ar
    35     6     1   ar
    36    11     4    1
    37    31    32    1
    38    34    35    1
@<TRIPOS>MOLECULE
*****
 35 38 0 0 0
SMALL
GASTEIGER

@<TRIPOS>ATOM
      1 C         139.5701  139.5619  163.1636 C.ar    1  UNL1        0.0388
      2 C         138.4334  139.0440  163.9941 C.ar    1  UNL1        0.0028
      3 C         138.4724  139.1808  165.4874 C.ar    1  UNL1       -0.0044
      4 C         139.6481  139.8355  166.1501 C.ar    1  UNL1       -0.0247
      5 C         140.7847  140.3534  165.3196 C.ar    1  UNL1       -0.0246
      6 C         140.7458  140.2166  163.8264 C.ar    1  UNL1       -0.0014
      7 C         142.0417  141.0336  165.7750 C.3     1  UNL1        0.0433
      8 C         142.4724  141.3639  167.1734 C.3     1  UNL1        0.0769
      9 N         141.7526  141.0956  168.4616 N.3     1  UNL1       -0.2691
     10 C         140.4242  140.4307  168.6699 C.3     1  UNL1        0.0769
     11 C         139.4876  139.8699  167.6411 C.3     1  UNL1        0.0433
     12 C         140.0785  138.7750  159.3970 C.ar    1  UNL1        0.2600
     13 N         140.4908  138.6335  160.8322 N.ar    1  UNL1       -0.1870
     14 C         139.5311  139.4251  161.6704 C.ar    1  UNL1        0.2036
     15 N         138.5257  140.0557  160.7532 N.ar    1  UNL1       -0.0556
     16 O         138.8640  139.6539  159.3481 O.2     1  UNL1       -0.3324
     17 C         142.1256  136.8929  155.8590 C.ar    1  UNL1        0.1479
     18 C         142.8971  137.1597  157.1174 C.ar    1  UNL1        0.0377
     19 C         142.2147  137.7870  158.2967 C.ar    1  UNL1        0.0079
     20 C         140.7609  138.1476  158.2176 C.ar    1  UNL1        0.0569
     21 C         139.9894  137.8807  156.9592 C.ar    1  UNL1        0.0181
     22 C         140.6717  137.2534  155.7799 C.ar    1  UNL1        0.1024
     23 C         139.9002  136.9866  154.5215 C.1     1  UNL1        0.1035
     24 N         139.1286  136.7198  153.2631 N.1     1  UNL1       -0.1907
     25 O         142.8079  136.2655  154.6797 O.3     1  UNL1       -0.4785
     26 C         142.0514  134.1674  153.3469 C.3     1  UNL1        0.0472
     27 C         142.7853  134.7758  154.5052 C.3     1  UNL1        0.1662
     28 C         143.4964  133.8946  155.4888 C.3     1  UNL1        0.0472
     29 C         142.4538  141.5525  169.7064 C.3     1  UNL1        0.1166
     30 C         141.8464  141.2832  171.0513 C.3     1  UNL1        0.1555
     31 O         142.1278  142.2062  172.1998 O.3     1  UNL1       -0.3805
     32 H         143.0680  142.1548  172.4331 H       1  UNL1        0.2105
     33 C         143.7624  142.2789  169.6063 C.3     1  UNL1        0.1555
     34 O         144.0895  143.3725  170.5795 O.3     1  UNL1       -0.3805
     35 H         143.4807  144.1160  170.4470 H       1  UNL1        0.2105
@<TRIPOS>BOND
     1    26    27    1
     2    27    28    1
     3    27    25    1
     4    25    17    1
     5    17    18   ar
     6    18    19   ar
     7    19    20   ar
     8    20    12    1
     9    12    13   ar
    10    13    14   ar
    11    14     1    1
    12     1     2   ar
    13     2     3   ar
    14     3     4   ar
    15     4     5   ar
    16     5     6   ar
    17     5     7    1
    18     7     8    1
    19     8     9    1
    20     9    29    1
    21    29    30    1
    22    30    31    1
    23    29    33    1
    24    33    34    1
    25     9    10    1
    26    10    11    1
    27    14    15   ar
    28    15    16   ar
    29    20    21   ar
    30    21    22   ar
    31    22    23    1
    32    23    24    3
    33    22    17   ar
    34    16    12   ar
    35     6     1   ar
    36    11     4    1
    37    31    32    1
    38    34    35    1
@<TRIPOS>MOLECULE
*****
 35 38 0 0 0
SMALL
GASTEIGER

@<TRIPOS>ATOM
      1 C         143.1927  143.1372  162.9146 C.ar    1  UNL1        0.0388
      2 C         144.4774  143.3323  163.6639 C.ar    1  UNL1        0.0028
      3 C         144.5209  143.1143  165.1474 C.ar    1  UNL1       -0.0044
      4 C         143.2796  142.7014  165.8815 C.ar    1  UNL1       -0.0247
      5 C         141.9951  142.5064  165.1321 C.ar    1  UNL1       -0.0246
      6 C         141.9515  142.7243  163.6487 C.ar    1  UNL1       -0.0014
      7 C         140.6533  142.1000  165.6659 C.3     1  UNL1        0.0433
      8 C         140.2651  141.7883  167.0809 C.3     1  UNL1        0.0769
      9 N         141.1225  141.8059  168.3114 N.3     1  UNL1       -0.2691
     10 C         142.5800  142.1397  168.4311 C.3     1  UNL1        0.0769
     11 C         143.5401  142.5382  167.3497 C.3     1  UNL1        0.0433
     12 C         143.5433  143.1071  159.0492 C.ar    1  UNL1        0.2600
     13 N         143.8693  142.5393  160.3987 N.ar    1  UNL1       -0.1870
     14 C         143.1493  143.3552  161.4312 C.ar    1  UNL1        0.2036
     15 N         142.3782  144.4272  160.7197 N.ar    1  UNL1       -0.0556
     16 O         142.6217  144.2739  159.2475 O.2     1  UNL1       -0.3324
     17 C         145.0629  141.5784  155.0990 C.ar    1  UNL1        0.1479
     18 C         143.5869  141.6771  155.3474 C.ar    1  UNL1        0.0377
     19 C         143.0804  142.1866  156.6641 C.ar    1  UNL1        0.0079
     20 C         144.0498  142.5975  157.7324 C.ar    1  UNL1        0.0569
     21 C         145.5258  142.4989  157.4840 C.ar    1  UNL1        0.0181
     22 C         146.0324  141.9894  156.1673 C.ar    1  UNL1        0.1024
     23 C         147.5084  141.8907  155.9189 C.1     1  UNL1        0.1035
     24 N         148.9844  141.7921  155.6705 N.1     1  UNL1       -0.1907
     25 O         145.5695  141.0689  153.7823 O.3     1  UNL1       -0.4785
     26 C         147.3728  141.9836  152.1507 C.3     1  UNL1        0.0472
     27 C         145.9830  142.0360  152.7128 C.3     1  UNL1        0.1662
     28 C         145.0067  143.0555  152.2053 C.3     1  UNL1        0.0472
     29 C         140.4310  141.4417  169.5917 C.3     1  UNL1        0.1166
     30 C         140.0224  142.5161  170.5555 C.3     1  UNL1        0.1555
     31 O         140.2255  142.3192  172.0286 O.3     1  UNL1       -0.3805
     32 H         139.6570  141.5974  172.3397 H       1  UNL1        0.2105
     33 C         140.1481  140.0030  169.9084 C.3     1  UNL1        0.1555
     34 O         139.1096  139.6504  170.9317 O.3     1  UNL1       -0.3805
     35 H         139.4004  139.9548  171.8056 H       1  UNL1        0.2105
@<TRIPOS>BOND
     1    26    27    1
     2    27    28    1
     3    27    25    1
     4    25    17    1
     5    17    18   ar
     6    18    19   ar
     7    19    20   ar
     8    20    12    1
     9    12    13   ar
    10    13    14   ar
    11    14     1    1
    12     1     2   ar
    13     2     3   ar
    14     3     4   ar
    15     4     5   ar
    16     5     6   ar
    17     5     7    1
    18     7     8    1
    19     8     9    1
    20     9    29    1
    21    29    30    1
    22    30    31    1
    23    29    33    1
    24    33    34    1
    25     9    10    1
    26    10    11    1
    27    14    15   ar
    28    15    16   ar
    29    20    21   ar
    30    21    22   ar
    31    22    23    1
    32    23    24    3
    33    22    17   ar
    34    16    12   ar
    35     6     1   ar
    36    11     4    1
    37    31    32    1
    38    34    35    1
