@<TRIPOS>MOLECULE
*****
 28 31 0 0 0
SMALL
GASTEIGER

@<TRIPOS>ATOM
      1 N         140.9018  142.8080  164.0555 N.am    1  UNL1       -0.3006
      2 C         141.2625  144.0575  163.3081 C.2     1  UNL1        0.2615
      3 O         141.8673  145.2200  164.0382 O.2     1  UNL1       -0.2686
      4 H         140.5049  142.0450  163.5763 H       1  UNL1        0.1497
      5 C         141.0185  144.1445  161.8307 C.ar    1  UNL1        0.1112
      6 C         139.9851  143.3766  161.0609 C.ar    1  UNL1        0.0296
      7 C         140.0929  143.7723  159.6181 C.ar    1  UNL1        0.0483
      8 S         139.5210  143.5422  158.2507 S.2     1  UNL1       -0.0731
      9 C         140.2674  144.4125  157.2836 C.ar    1  UNL1        0.0989
     10 CL        140.0233  144.4996  155.8061 Cl      1  UNL1       -0.0742
     11 C         141.3008  145.1805  158.0533 C.ar    1  UNL1        0.0903
     12 CL        142.2714  146.1703  157.4806 Cl      1  UNL1       -0.0793
     13 C         141.1929  144.7848  159.4961 C.ar    1  UNL1        0.0748
     14 N         141.7650  145.0149  160.8635 N.ar    1  UNL1       -0.3485
     15 H         142.5011  145.6293  161.0870 H       1  UNL1        0.1661
     16 C         142.4563  142.4100  166.1933 C.3     1  UNL1        0.0458
     17 C         142.2427  142.4264  167.6780 C.ar    1  UNL1       -0.0244
     18 C         143.1753  142.1905  168.8288 C.ar    1  UNL1       -0.0045
     19 C         142.6654  142.2756  170.2369 C.ar    1  UNL1       -0.0003
     20 C         141.2229  142.5967  170.4941 C.ar    1  UNL1       -0.0003
     21 C         140.2903  142.8326  169.3432 C.ar    1  UNL1       -0.0045
     22 C         140.8002  142.7475  167.9352 C.ar    1  UNL1       -0.0244
     23 C         140.1224  142.9295  166.6095 C.3     1  UNL1        0.0459
     24 C         141.1459  142.7209  165.5330 C.3     1  UNL1        0.0806
     25 C         143.7528  142.1316  165.4922 C.3     1  UNL1        0.0477
     26 O         145.2489  144.2019  165.9674 O.co2   1  UNL1       -0.5492
     27 C         144.5945  143.2683  164.9926 C.2     1  UNL1        0.0507
     28 O         144.7818  143.4714  163.5183 O.co2   1  UNL1       -0.5492
@<TRIPOS>UNITY_ATOM_ATTR
26 1
charge -1
@<TRIPOS>BOND
     1    26    27   ar
     2    27    28   ar
     3    27    25    1
     4    16    25    1
     5    16    17    1
     6    17    18   ar
     7    18    19   ar
     8    19    20   ar
     9    20    21   ar
    10    21    22   ar
    11    22    23    1
    12    23    24    1
    13    24     1    1
    14     1     2   am
    15     2     3    2
    16     2     5    1
    17     5     6   ar
    18     6     7   ar
    19     7     8   ar
    20     8     9   ar
    21     9    10    1
    22     9    11   ar
    23    11    12    1
    24    11    13   ar
    25    13    14   ar
    26    24    16    1
    27    14     5   ar
    28    22    17   ar
    29    13     7   ar
    30     1     4    1
    31    14    15    1
@<TRIPOS>MOLECULE
*****
 28 31 0 0 0
SMALL
GASTEIGER

@<TRIPOS>ATOM
      1 N         141.9118  142.7592  163.5897 N.am    1  UNL1       -0.3006
      2 C         142.2784  144.0340  162.8894 C.2     1  UNL1        0.2615
      3 O         142.6304  145.2541  163.6880 O.2     1  UNL1       -0.2686
      4 H         141.6808  141.9585  163.0656 H       1  UNL1        0.1497
      5 C         142.2932  144.0888  161.3905 C.ar    1  UNL1        0.1112
      6 C         143.0483  143.1646  160.4818 C.ar    1  UNL1        0.0296
      7 C         142.7772  143.5821  159.0667 C.ar    1  UNL1        0.0483
      8 S         143.0763  143.2689  157.6307 S.2     1  UNL1       -0.0731
      9 C         142.3386  144.2575  156.7773 C.ar    1  UNL1        0.0989
     10 CL        142.3533  144.3123  155.2784 Cl      1  UNL1       -0.0742
     11 C         141.5834  145.1818  157.6860 C.ar    1  UNL1        0.0903
     12 CL        140.7106  146.3230  157.2552 Cl      1  UNL1       -0.0793
     13 C         141.8546  144.7643  159.1009 C.ar    1  UNL1        0.0748
     14 N         141.5554  145.0775  160.5370 N.ar    1  UNL1       -0.3485
     15 H         140.9765  145.8044  160.8624 H       1  UNL1        0.1661
     16 C         140.6986  142.9108  165.9667 C.3     1  UNL1        0.0458
     17 C         141.1390  142.7675  167.3934 C.ar    1  UNL1       -0.0244
     18 C         140.3909  142.8675  168.6897 C.ar    1  UNL1       -0.0045
     19 C         141.1135  142.6726  169.9896 C.ar    1  UNL1       -0.0003
     20 C         142.5842  142.3777  169.9933 C.ar    1  UNL1       -0.0003
     21 C         143.3323  142.2777  168.6970 C.ar    1  UNL1       -0.0045
     22 C         142.6097  142.4726  167.3971 C.ar    1  UNL1       -0.0244
     23 C         143.0782  142.4336  165.9727 C.3     1  UNL1        0.0459
     24 C         141.8970  142.7044  165.0886 C.3     1  UNL1        0.0806
     25 C         139.3044  143.2082  165.5001 C.3     1  UNL1        0.0477
     26 O         139.1380  145.1735  163.8088 O.co2   1  UNL1       -0.5492
     27 C         138.9045  144.6188  165.1828 C.2     1  UNL1        0.0507
     28 O         138.2712  145.4745  166.2395 O.co2   1  UNL1       -0.5492
@<TRIPOS>UNITY_ATOM_ATTR
26 1
charge -1
@<TRIPOS>BOND
     1    26    27   ar
     2    27    28   ar
     3    27    25    1
     4    16    25    1
     5    16    17    1
     6    17    18   ar
     7    18    19   ar
     8    19    20   ar
     9    20    21   ar
    10    21    22   ar
    11    22    23    1
    12    23    24    1
    13    24     1    1
    14     1     2   am
    15     2     3    2
    16     2     5    1
    17     5     6   ar
    18     6     7   ar
    19     7     8   ar
    20     8     9   ar
    21     9    10    1
    22     9    11   ar
    23    11    12    1
    24    11    13   ar
    25    13    14   ar
    26    24    16    1
    27    14     5   ar
    28    22    17   ar
    29    13     7   ar
    30     1     4    1
    31    14    15    1
@<TRIPOS>MOLECULE
*****
 28 31 0 0 0
SMALL
GASTEIGER

@<TRIPOS>ATOM
      1 N         141.4776  139.0021  164.9762 N.am    1  UNL1       -0.3006
      2 C         141.3197  140.0004  163.8679 C.2     1  UNL1        0.2615
      3 O         141.1060  141.4500  164.1890 O.2     1  UNL1       -0.2686
      4 H         141.6178  138.0507  164.7654 H       1  UNL1        0.1497
      5 C         141.3753  139.5492  162.4384 C.ar    1  UNL1        0.1112
      6 C         142.4827  138.7598  161.8055 C.ar    1  UNL1        0.0296
      7 C         142.1252  138.5309  160.3668 C.ar    1  UNL1        0.0483
      8 S         142.5886  137.9016  159.0866 S.2     1  UNL1       -0.0731
      9 C         141.5467  138.1605  158.0391 C.ar    1  UNL1        0.0989
     10 CL        141.6023  137.7093  156.6096 Cl      1  UNL1       -0.0742
     11 C         140.4392  138.9500  158.6720 C.ar    1  UNL1        0.0903
     12 CL        139.1932  139.4267  157.9865 Cl      1  UNL1       -0.0793
     13 C         140.7968  139.1788  160.1106 C.ar    1  UNL1        0.0748
     14 N         140.3333  139.8082  161.3909 N.ar    1  UNL1       -0.3485
     15 H         139.4929  140.3041  161.5208 H       1  UNL1        0.1661
     16 C         140.1781  139.7634  167.1845 C.3     1  UNL1        0.0458
     17 C         140.5878  140.1754  168.5674 C.ar    1  UNL1       -0.0244
     18 C         139.7910  140.5939  169.7674 C.ar    1  UNL1       -0.0045
     19 C         140.4913  140.9569  171.0432 C.ar    1  UNL1       -0.0003
     20 C         141.9884  140.9014  171.1190 C.ar    1  UNL1       -0.0003
     21 C         142.7851  140.4829  169.9191 C.ar    1  UNL1       -0.0045
     22 C         142.0848  140.1199  168.6432 C.ar    1  UNL1       -0.0244
     23 C         142.6004  139.6736  167.3072 C.3     1  UNL1        0.0459
     24 C         141.4220  139.4533  166.4056 C.3     1  UNL1        0.0806
     25 C         138.7715  139.6768  166.6707 C.3     1  UNL1        0.0477
     26 O         138.6202  137.4725  165.3039 O.co2   1  UNL1       -0.5492
     27 C         138.1412  138.3366  166.4325 C.2     1  UNL1        0.0507
     28 O         137.0320  137.8605  167.3230 O.co2   1  UNL1       -0.5492
@<TRIPOS>UNITY_ATOM_ATTR
26 1
charge -1
@<TRIPOS>BOND
     1    26    27   ar
     2    27    28   ar
     3    27    25    1
     4    16    25    1
     5    16    17    1
     6    17    18   ar
     7    18    19   ar
     8    19    20   ar
     9    20    21   ar
    10    21    22   ar
    11    22    23    1
    12    23    24    1
    13    24     1    1
    14     1     2   am
    15     2     3    2
    16     2     5    1
    17     5     6   ar
    18     6     7   ar
    19     7     8   ar
    20     8     9   ar
    21     9    10    1
    22     9    11   ar
    23    11    12    1
    24    11    13   ar
    25    13    14   ar
    26    24    16    1
    27    14     5   ar
    28    22    17   ar
    29    13     7   ar
    30     1     4    1
    31    14    15    1
@<TRIPOS>MOLECULE
*****
 28 31 0 0 0
SMALL
GASTEIGER

@<TRIPOS>ATOM
      1 N         140.4651  142.4609  163.3250 N.am    1  UNL1       -0.3006
      2 C         139.9099  143.7443  162.7826 C.2     1  UNL1        0.2615
      3 O         139.1663  144.6817  163.6874 O.2     1  UNL1       -0.2686
      4 H         140.9531  141.8457  162.7312 H       1  UNL1        0.1497
      5 C         140.0982  144.0906  161.3353 C.ar    1  UNL1        0.1112
      6 C         141.1236  145.0345  160.7807 C.ar    1  UNL1        0.0296
      7 C         140.9533  145.0810  159.2911 C.ar    1  UNL1        0.0483
      8 S         141.4817  145.6931  158.0278 S.2     1  UNL1       -0.0731
      9 C         140.6777  145.1562  156.8810 C.ar    1  UNL1        0.0989
     10 CL        140.8660  145.5025  155.4337 Cl      1  UNL1       -0.0742
     11 C         139.6523  144.2122  157.4355 C.ar    1  UNL1        0.0903
     12 CL        138.6352  143.4489  156.6401 Cl      1  UNL1       -0.0793
     13 C         139.8226  144.1658  158.9250 C.ar    1  UNL1        0.0748
     14 N         139.2941  143.5536  160.1884 N.ar    1  UNL1       -0.3485
     15 H         138.5501  142.9121  160.2534 H       1  UNL1        0.1661
     16 C         139.6182  140.8763  165.3042 C.3     1  UNL1        0.0458
     17 C         139.6484  140.9423  166.8025 C.ar    1  UNL1       -0.0244
     18 C         139.1467  140.0029  167.8588 C.ar    1  UNL1       -0.0045
     19 C         139.3223  140.3426  169.3092 C.ar    1  UNL1       -0.0003
     20 C         139.9996  141.6216  169.7033 C.ar    1  UNL1       -0.0003
     21 C         140.5013  142.5610  168.6470 C.ar    1  UNL1       -0.0045
     22 C         140.3257  142.2213  167.1966 C.ar    1  UNL1       -0.0244
     23 C         140.7141  142.9458  165.9419 C.3     1  UNL1        0.0459
     24 C         140.2768  142.1146  164.7723 C.3     1  UNL1        0.0806
     25 C         139.0323  139.7669  164.4822 C.3     1  UNL1        0.0477
     26 O         137.3349  141.3811  163.3581 O.co2   1  UNL1       -0.5492
     27 C         138.0859  140.0827  163.3619 C.2     1  UNL1        0.0507
     28 O         137.8907  139.1000  162.2456 O.co2   1  UNL1       -0.5492
@<TRIPOS>UNITY_ATOM_ATTR
26 1
charge -1
@<TRIPOS>BOND
     1    26    27   ar
     2    27    28   ar
     3    27    25    1
     4    16    25    1
     5    16    17    1
     6    17    18   ar
     7    18    19   ar
     8    19    20   ar
     9    20    21   ar
    10    21    22   ar
    11    22    23    1
    12    23    24    1
    13    24     1    1
    14     1     2   am
    15     2     3    2
    16     2     5    1
    17     5     6   ar
    18     6     7   ar
    19     7     8   ar
    20     8     9   ar
    21     9    10    1
    22     9    11   ar
    23    11    12    1
    24    11    13   ar
    25    13    14   ar
    26    24    16    1
    27    14     5   ar
    28    22    17   ar
    29    13     7   ar
    30     1     4    1
    31    14    15    1
@<TRIPOS>MOLECULE
*****
 28 31 0 0 0
SMALL
GASTEIGER

@<TRIPOS>ATOM
      1 N         139.7383  141.2614  162.8680 N.am    1  UNL1       -0.3006
      2 C         138.5610  141.8670  162.1628 C.2     1  UNL1        0.2615
      3 O         137.4354  142.4610  162.9567 O.2     1  UNL1       -0.2686
      4 H         140.4770  140.8715  162.3470 H       1  UNL1        0.1497
      5 C         138.5093  141.8785  160.6638 C.ar    1  UNL1        0.1112
      6 C         138.1546  140.7160  159.7848 C.ar    1  UNL1        0.0296
      7 C         138.2293  141.1736  158.3583 C.ar    1  UNL1        0.0483
      8 S         138.0563  140.7379  156.9335 S.2     1  UNL1       -0.0731
      9 C         138.3501  141.9141  156.0502 C.ar    1  UNL1        0.0989
     10 CL        138.2984  141.9257  154.5511 Cl      1  UNL1       -0.0742
     11 C         138.7048  143.0768  156.9291 C.ar    1  UNL1        0.0903
     12 CL        139.0700  144.4550  156.4633 Cl      1  UNL1       -0.0793
     13 C         138.6301  142.6190  158.3556 C.ar    1  UNL1        0.0748
     14 N         138.8032  143.0548  159.7805 N.ar    1  UNL1       -0.3485
     15 H         139.0639  143.9547  160.0828 H       1  UNL1        0.1661
     16 C         140.3519  142.3339  165.2383 C.3     1  UNL1        0.0458
     17 C         140.1981  141.9062  166.6678 C.ar    1  UNL1       -0.0244
     18 C         140.5714  142.5704  167.9599 C.ar    1  UNL1       -0.0045
     19 C         140.2877  141.8862  169.2642 C.ar    1  UNL1       -0.0003
     20 C         139.6307  140.5378  169.2765 C.ar    1  UNL1       -0.0003
     21 C         139.2574  139.8736  167.9844 C.ar    1  UNL1       -0.0045
     22 C         139.5411  140.5578  166.6801 C.ar    1  UNL1       -0.0244
     23 C         139.2889  140.1522  165.2582 C.3     1  UNL1        0.0459
     24 C         139.7900  141.2498  164.3671 C.3     1  UNL1        0.0806
     25 C         140.9608  143.6199  164.7634 C.3     1  UNL1        0.0477
     26 O         140.5194  145.4281  162.9507 O.co2   1  UNL1       -0.5492
     27 C         140.0881  144.6947  164.1861 C.2     1  UNL1        0.0507
     28 O         138.7841  145.0362  164.8442 O.co2   1  UNL1       -0.5492
@<TRIPOS>UNITY_ATOM_ATTR
26 1
charge -1
@<TRIPOS>BOND
     1    26    27   ar
     2    27    28   ar
     3    27    25    1
     4    16    25    1
     5    16    17    1
     6    17    18   ar
     7    18    19   ar
     8    19    20   ar
     9    20    21   ar
    10    21    22   ar
    11    22    23    1
    12    23    24    1
    13    24     1    1
    14     1     2   am
    15     2     3    2
    16     2     5    1
    17     5     6   ar
    18     6     7   ar
    19     7     8   ar
    20     8     9   ar
    21     9    10    1
    22     9    11   ar
    23    11    12    1
    24    11    13   ar
    25    13    14   ar
    26    24    16    1
    27    14     5   ar
    28    22    17   ar
    29    13     7   ar
    30     1     4    1
    31    14    15    1
@<TRIPOS>MOLECULE
*****
 28 31 0 0 0
SMALL
GASTEIGER

@<TRIPOS>ATOM
      1 N         140.1341  141.5721  164.2213 N.am    1  UNL1       -0.3006
      2 C         138.8580  141.8269  163.4753 C.2     1  UNL1        0.2615
      3 O         137.6193  142.2248  164.2219 O.2     1  UNL1       -0.2686
      4 H         140.9471  141.3109  163.7312 H       1  UNL1        0.1497
      5 C         138.8205  141.6840  161.9826 C.ar    1  UNL1        0.1112
      6 C         138.4251  142.7501  161.0043 C.ar    1  UNL1        0.0296
      7 C         138.5320  142.1748  159.6232 C.ar    1  UNL1        0.0483
      8 S         138.3537  142.4781  158.1651 S.2     1  UNL1       -0.0731
      9 C         138.7051  141.2439  157.3885 C.ar    1  UNL1        0.0989
     10 CL        138.6676  141.1009  155.8958 Cl      1  UNL1       -0.0742
     11 C         139.1006  140.1776  158.3667 C.ar    1  UNL1        0.0903
     12 CL        139.5280  138.7813  158.0239 Cl      1  UNL1       -0.0793
     13 C         138.9936  140.7530  159.7478 C.ar    1  UNL1        0.0748
     14 N         139.1719  140.4496  161.2060 N.ar    1  UNL1       -0.3485
     15 H         139.4676  139.5911  161.5865 H       1  UNL1        0.1661
     16 C         140.0462  140.6004  166.7099 C.3     1  UNL1        0.0458
     17 C         140.1382  141.1943  168.0843 C.ar    1  UNL1       -0.0244
     18 C         140.0796  140.5773  169.4502 C.ar    1  UNL1       -0.0045
     19 C         140.2032  141.4419  170.6696 C.ar    1  UNL1       -0.0003
     20 C         140.3853  142.9236  170.5231 C.ar    1  UNL1       -0.0003
     21 C         140.4440  143.5406  169.1572 C.ar    1  UNL1       -0.0045
     22 C         140.3204  142.6759  167.9378 C.ar    1  UNL1       -0.0244
     23 C         140.3410  142.9978  166.4729 C.3     1  UNL1        0.0459
     24 C         140.1716  141.7151  165.7140 C.3     1  UNL1        0.0806
     25 C         139.8614  139.1471  166.3880 C.3     1  UNL1        0.0477
     26 O         137.4253  138.2762  166.6278 O.co2   1  UNL1       -0.5492
     27 C         138.5831  138.6744  165.7613 C.2     1  UNL1        0.0507
     28 O         138.4627  138.5999  164.2679 O.co2   1  UNL1       -0.5492
@<TRIPOS>UNITY_ATOM_ATTR
26 1
charge -1
@<TRIPOS>BOND
     1    26    27   ar
     2    27    28   ar
     3    27    25    1
     4    16    25    1
     5    16    17    1
     6    17    18   ar
     7    18    19   ar
     8    19    20   ar
     9    20    21   ar
    10    21    22   ar
    11    22    23    1
    12    23    24    1
    13    24     1    1
    14     1     2   am
    15     2     3    2
    16     2     5    1
    17     5     6   ar
    18     6     7   ar
    19     7     8   ar
    20     8     9   ar
    21     9    10    1
    22     9    11   ar
    23    11    12    1
    24    11    13   ar
    25    13    14   ar
    26    24    16    1
    27    14     5   ar
    28    22    17   ar
    29    13     7   ar
    30     1     4    1
    31    14    15    1
@<TRIPOS>MOLECULE
*****
 28 31 0 0 0
SMALL
GASTEIGER

@<TRIPOS>ATOM
      1 N         140.1848  142.1064  163.6804 N.am    1  UNL1       -0.3006
      2 C         139.0716  142.8134  162.9657 C.2     1  UNL1        0.2615
      3 O         137.9035  143.3483  163.7400 O.2     1  UNL1       -0.2686
      4 H         140.9514  141.7553  163.1722 H       1  UNL1        0.1497
      5 C         139.1265  142.9857  161.4766 C.ar    1  UNL1        0.1112
      6 C         138.5337  142.0565  160.4591 C.ar    1  UNL1        0.0296
      7 C         138.8247  142.6139  159.0972 C.ar    1  UNL1        0.0483
      8 S         138.6381  142.3841  157.6268 S.2     1  UNL1       -0.0731
      9 C         139.2954  143.5157  156.8938 C.ar    1  UNL1        0.0989
     10 CL        139.3503  143.6880  155.4047 Cl      1  UNL1       -0.0742
     11 C         139.8882  144.4450  157.9113 C.ar    1  UNL1        0.0903
     12 CL        140.6399  145.7095  157.6182 Cl      1  UNL1       -0.0793
     13 C         139.5973  143.8875  159.2730 C.ar    1  UNL1        0.0748
     14 N         139.7839  144.1174  160.7436 N.ar    1  UNL1       -0.3485
     15 H         140.2550  144.8775  161.1553 H       1  UNL1        0.1661
     16 C         139.6539  140.7129  165.8989 C.3     1  UNL1        0.0458
     17 C         139.7712  140.9769  167.3708 C.ar    1  UNL1       -0.0244
     18 C         139.4494  140.1355  168.5702 C.ar    1  UNL1       -0.0045
     19 C         139.6761  140.6786  169.9499 C.ar    1  UNL1       -0.0003
     20 C         140.2246  142.0630  170.1302 C.ar    1  UNL1       -0.0003
     21 C         140.5464  142.9043  168.9309 C.ar    1  UNL1       -0.0045
     22 C         140.3197  142.3613  167.5512 C.ar    1  UNL1       -0.0244
     23 C         140.5414  142.9529  166.1907 C.3     1  UNL1        0.0459
     24 C         140.1299  141.9341  165.1695 C.3     1  UNL1        0.0806
     25 C         139.1492  139.4494  165.2672 C.3     1  UNL1        0.0477
     26 O         140.7856  137.4887  164.7900 O.co2   1  UNL1       -0.5492
     27 C         140.0209  138.6877  164.3132 C.2     1  UNL1        0.0507
     28 O         140.1278  139.1252  162.8824 O.co2   1  UNL1       -0.5492
@<TRIPOS>UNITY_ATOM_ATTR
26 1
charge -1
@<TRIPOS>BOND
     1    26    27   ar
     2    27    28   ar
     3    27    25    1
     4    16    25    1
     5    16    17    1
     6    17    18   ar
     7    18    19   ar
     8    19    20   ar
     9    20    21   ar
    10    21    22   ar
    11    22    23    1
    12    23    24    1
    13    24     1    1
    14     1     2   am
    15     2     3    2
    16     2     5    1
    17     5     6   ar
    18     6     7   ar
    19     7     8   ar
    20     8     9   ar
    21     9    10    1
    22     9    11   ar
    23    11    12    1
    24    11    13   ar
    25    13    14   ar
    26    24    16    1
    27    14     5   ar
    28    22    17   ar
    29    13     7   ar
    30     1     4    1
    31    14    15    1
@<TRIPOS>MOLECULE
*****
 28 31 0 0 0
SMALL
GASTEIGER

@<TRIPOS>ATOM
      1 N         141.2054  143.8485  162.8541 N.am    1  UNL1       -0.3006
      2 C         140.4753  142.6074  163.2741 C.2     1  UNL1        0.2615
      3 O         139.8228  141.7356  162.2424 O.2     1  UNL1       -0.2686
      4 H         141.6337  144.4206  163.5312 H       1  UNL1        0.1497
      5 C         140.3976  142.2380  164.7259 C.ar    1  UNL1        0.1112
      6 C         140.1622  140.8617  165.2741 C.ar    1  UNL1        0.0296
      7 C         140.1608  140.9531  166.7713 C.ar    1  UNL1        0.0483
      8 S         140.0145  140.1591  168.0354 S.2     1  UNL1       -0.0731
      9 C         140.1586  141.1011  169.1938 C.ar    1  UNL1        0.0989
     10 CL        140.0809  140.7317  170.6455 Cl      1  UNL1       -0.0742
     11 C         140.3940  142.4774  168.6456 C.ar    1  UNL1        0.0903
     12 CL        140.5930  143.7258  169.4529 Cl      1  UNL1       -0.0793
     13 C         140.3953  142.3859  167.1484 C.ar    1  UNL1        0.0748
     14 N         140.5417  143.1800  165.8843 N.ar    1  UNL1       -0.3485
     15 H         140.7039  144.1493  165.8253 H       1  UNL1        0.1661
     16 C         142.2725  143.6852  160.4087 C.3     1  UNL1        0.0458
     17 C         141.9859  144.3229  159.0816 C.ar    1  UNL1       -0.0244
     18 C         142.6365  144.1794  157.7377 C.ar    1  UNL1       -0.0045
     19 C         142.1205  144.9627  156.5672 C.ar    1  UNL1       -0.0003
     20 C         140.9538  145.8895  156.7406 C.ar    1  UNL1       -0.0003
     21 C         140.3033  146.0330  158.0845 C.ar    1  UNL1       -0.0045
     22 C         140.8193  145.2497  159.2550 C.ar    1  UNL1       -0.0244
     23 C         140.3850  145.1848  160.6893 C.3     1  UNL1        0.0459
     24 C         141.2831  144.2179  161.4023 C.3     1  UNL1        0.0806
     25 C         143.3581  142.6897  160.6924 C.3     1  UNL1        0.0477
     26 O         145.4580  141.9791  162.0473 O.co2   1  UNL1       -0.5492
     27 C         144.4222  143.0073  161.7008 C.2     1  UNL1        0.0507
     28 O         144.4506  144.3530  162.3627 O.co2   1  UNL1       -0.5492
@<TRIPOS>UNITY_ATOM_ATTR
26 1
charge -1
@<TRIPOS>BOND
     1    26    27   ar
     2    27    28   ar
     3    27    25    1
     4    16    25    1
     5    16    17    1
     6    17    18   ar
     7    18    19   ar
     8    19    20   ar
     9    20    21   ar
    10    21    22   ar
    11    22    23    1
    12    23    24    1
    13    24     1    1
    14     1     2   am
    15     2     3    2
    16     2     5    1
    17     5     6   ar
    18     6     7   ar
    19     7     8   ar
    20     8     9   ar
    21     9    10    1
    22     9    11   ar
    23    11    12    1
    24    11    13   ar
    25    13    14   ar
    26    24    16    1
    27    14     5   ar
    28    22    17   ar
    29    13     7   ar
    30     1     4    1
    31    14    15    1
@<TRIPOS>MOLECULE
*****
 28 31 0 0 0
SMALL
GASTEIGER

@<TRIPOS>ATOM
      1 N         141.1063  141.2059  163.7830 N.am    1  UNL1       -0.3006
      2 C         142.2977  140.4048  163.3485 C.2     1  UNL1        0.2615
      3 O         143.1497  139.7129  164.3710 O.2     1  UNL1       -0.2686
      4 H         140.5472  141.6600  163.1119 H       1  UNL1        0.1497
      5 C         142.6372  140.2956  161.8915 C.ar    1  UNL1        0.1112
      6 C         143.3751  141.3179  161.0791 C.ar    1  UNL1        0.0296
      7 C         143.4923  140.7990  159.6766 C.ar    1  UNL1        0.0483
      8 S         144.0208  141.1101  158.3078 S.2     1  UNL1       -0.0731
      9 C         143.6819  139.9592  157.4074 C.ar    1  UNL1        0.0989
     10 CL        144.0213  139.8500  155.9504 Cl      1  UNL1       -0.0742
     11 C         142.9439  138.9368  158.2199 C.ar    1  UNL1        0.0903
     12 CL        142.4159  137.6256  157.7179 Cl      1  UNL1       -0.0793
     13 C         142.8268  139.4558  159.6222 C.ar    1  UNL1        0.0748
     14 N         142.2982  139.1446  160.9912 N.ar    1  UNL1       -0.3485
     15 H         141.8140  138.3283  161.2527 H       1  UNL1        0.1661
     16 C         140.0911  140.2636  166.0691 C.3     1  UNL1        0.0458
     17 C         139.9502  140.7938  167.4653 C.ar    1  UNL1       -0.0244
     18 C         139.3618  140.1988  168.7102 C.ar    1  UNL1       -0.0045
     19 C         139.3622  140.9830  169.9888 C.ar    1  UNL1       -0.0003
     20 C         139.9509  142.3623  170.0225 C.ar    1  UNL1       -0.0003
     21 C         140.5393  142.9572  168.7776 C.ar    1  UNL1       -0.0045
     22 C         140.5389  142.1730  167.4990 C.ar    1  UNL1       -0.0244
     23 C         141.0436  142.4952  166.1237 C.3     1  UNL1        0.0459
     24 C         140.7669  141.3152  165.2400 C.3     1  UNL1        0.0806
     25 C         139.6361  138.9181  165.5869 C.3     1  UNL1        0.0477
     26 O         138.7893  137.5174  163.5692 O.co2   1  UNL1       -0.5492
     27 C         138.8188  138.8075  164.3339 C.2     1  UNL1        0.0507
     28 O         138.0311  139.9869  163.8456 O.co2   1  UNL1       -0.5492
@<TRIPOS>UNITY_ATOM_ATTR
26 1
charge -1
@<TRIPOS>BOND
     1    26    27   ar
     2    27    28   ar
     3    27    25    1
     4    16    25    1
     5    16    17    1
     6    17    18   ar
     7    18    19   ar
     8    19    20   ar
     9    20    21   ar
    10    21    22   ar
    11    22    23    1
    12    23    24    1
    13    24     1    1
    14     1     2   am
    15     2     3    2
    16     2     5    1
    17     5     6   ar
    18     6     7   ar
    19     7     8   ar
    20     8     9   ar
    21     9    10    1
    22     9    11   ar
    23    11    12    1
    24    11    13   ar
    25    13    14   ar
    26    24    16    1
    27    14     5   ar
    28    22    17   ar
    29    13     7   ar
    30     1     4    1
    31    14    15    1
