@<TRIPOS>MOLECULE
*****
 38 43 0 0 0
SMALL
GASTEIGER

@<TRIPOS>ATOM
      1 C         140.9709  141.7004  159.8817 C.ar    1  UNL1        0.1042
      2 C         141.3518  142.0113  158.4646 C.ar    1  UNL1        0.0141
      3 C         141.9674  140.9489  157.6031 C.ar    1  UNL1        0.0199
      4 C         142.2021  139.5755  158.1587 C.ar    1  UNL1        0.0830
      5 N         141.8213  139.2646  159.5758 N.ar    1  UNL1       -0.2259
      6 C         141.2057  140.3271  160.4373 C.ar    1  UNL1        0.1740
      7 C         141.1171  143.3848  157.9089 C.ar    1  UNL1        0.0008
      8 C         139.8524  143.6849  157.1602 C.ar    1  UNL1        0.0000
      9 C         139.6177  145.0583  156.6046 C.ar    1  UNL1        0.0000
     10 C         140.6477  146.1315  156.7976 C.ar    1  UNL1        0.0000
     11 C         141.9124  145.8314  157.5464 C.ar    1  UNL1        0.0000
     12 C         142.1470  144.4580  158.1020 C.ar    1  UNL1        0.0000
     13 C         142.8177  138.5130  157.2971 C.ar    1  UNL1        0.0177
     14 C         143.6837  138.8985  156.1347 C.ar    1  UNL1        0.0015
     15 C         144.2992  137.8361  155.2731 C.ar    1  UNL1        0.0000
     16 C         144.0488  136.3881  155.5741 C.ar    1  UNL1        0.0000
     17 C         143.1828  136.0026  156.7366 C.ar    1  UNL1        0.0000
     18 C         142.5673  137.0651  157.5981 C.ar    1  UNL1        0.0015
     19 N         140.8248  140.0161  161.8545 N.2     1  UNL1       -0.2023
     20 C         141.6966  140.4785  162.9841 C.ar    1  UNL1        0.1808
     21 S         142.9721  141.2568  162.8519 S.2     1  UNL1       -0.0480
     22 C         143.5099  141.5032  164.2303 C.ar    1  UNL1        0.0559
     23 C         142.5667  140.8771  165.2145 C.ar    1  UNL1        0.0723
     24 N         141.4461  140.2439  164.4443 N.ar    1  UNL1       -0.2861
     25 C         142.7176  140.8832  166.7069 C.ar    1  UNL1        0.0167
     26 C         142.9908  142.1699  167.4278 C.ar    1  UNL1        0.0015
     27 C         143.1418  142.1760  168.9202 C.ar    1  UNL1        0.0000
     28 C         143.0196  140.8954  169.6917 C.ar    1  UNL1        0.0000
     29 C         142.7464  139.6086  168.9707 C.ar    1  UNL1        0.0000
     30 C         142.5954  139.6026  167.4783 C.ar    1  UNL1        0.0015
     31 C         140.2797  139.5056  165.0312 C.ar    1  UNL1        0.0658
     32 C         140.0919  138.0464  164.7391 C.ar    1  UNL1        0.0176
     33 C         138.9255  137.3081  165.3260 C.ar    1  UNL1        0.0015
     34 C         137.9470  138.0289  166.2050 C.ar    1  UNL1        0.0001
     35 C         138.1348  139.4882  166.4972 C.ar    1  UNL1        0.0015
     36 C         139.3011  140.2265  165.9103 C.ar    1  UNL1        0.0176
     37 N         139.7398  143.8254  161.6047 N.1     1  UNL1       -0.1907
     38 C         140.3554  142.7629  160.7432 C.1     1  UNL1        0.1035
@<TRIPOS>BOND
     1    37    38    3
     2    38     1    1
     3     1     2   ar
     4     2     7    1
     5     7     8   ar
     6     8     9   ar
     7     9    10   ar
     8    10    11   ar
     9    11    12   ar
    10     2     3   ar
    11     3     4   ar
    12     4    13    1
    13    13    14   ar
    14    14    15   ar
    15    15    16   ar
    16    16    17   ar
    17    17    18   ar
    18     4     5   ar
    19     5     6   ar
    20     6    19    1
    21    19    20    2
    22    20    21   ar
    23    21    22   ar
    24    22    23   ar
    25    23    25    1
    26    25    26   ar
    27    26    27   ar
    28    27    28   ar
    29    28    29   ar
    30    29    30   ar
    31    23    24   ar
    32    24    31    1
    33    31    32   ar
    34    32    33   ar
    35    33    34   ar
    36    34    35   ar
    37    35    36   ar
    38     6     1   ar
    39    24    20   ar
    40    36    31   ar
    41    12     7   ar
    42    18    13   ar
    43    30    25   ar
@<TRIPOS>MOLECULE
*****
 38 43 0 0 0
SMALL
GASTEIGER

@<TRIPOS>ATOM
      1 C         141.1689  142.8537  158.7833 C.ar    1  UNL1        0.1042
      2 C         141.4930  143.5017  157.4699 C.ar    1  UNL1        0.0141
      3 C         142.8431  143.3012  156.8476 C.ar    1  UNL1        0.0199
      4 C         143.8689  142.4527  157.5388 C.ar    1  UNL1        0.0830
      5 N         143.5448  141.8048  158.8522 N.ar    1  UNL1       -0.2259
      6 C         142.1947  142.0053  159.4744 C.ar    1  UNL1        0.1740
      7 C         140.4671  144.3501  156.7787 C.ar    1  UNL1        0.0008
      8 C         140.4660  145.8368  156.9777 C.ar    1  UNL1        0.0000
      9 C         139.4401  146.6853  156.2865 C.ar    1  UNL1        0.0000
     10 C         138.4154  146.0470  155.3962 C.ar    1  UNL1        0.0000
     11 C         138.4166  144.5602  155.1972 C.ar    1  UNL1        0.0000
     12 C         139.4424  143.7118  155.8884 C.ar    1  UNL1        0.0000
     13 C         145.2190  142.2522  156.9165 C.ar    1  UNL1        0.0177
     14 C         146.4397  142.8272  157.5717 C.ar    1  UNL1        0.0015
     15 C         147.7897  142.6267  156.9495 C.ar    1  UNL1        0.0000
     16 C         147.9191  141.8512  155.6720 C.ar    1  UNL1        0.0000
     17 C         146.6984  141.2763  155.0169 C.ar    1  UNL1        0.0000
     18 C         145.3483  141.4768  155.6391 C.ar    1  UNL1        0.0015
     19 N         141.8706  141.3574  160.7879 N.2     1  UNL1       -0.2023
     20 C         142.0817  142.1102  162.0680 C.ar    1  UNL1        0.1808
     21 S         142.6073  143.5098  162.1913 S.2     1  UNL1       -0.0480
     22 C         142.6548  143.8603  163.6490 C.ar    1  UNL1        0.0559
     23 C         142.1585  142.6773  164.4266 C.ar    1  UNL1        0.0723
     24 N         141.8044  141.5958  163.4494 N.ar    1  UNL1       -0.2861
     25 C         142.0377  142.5911  165.9192 C.ar    1  UNL1        0.0167
     26 C         140.6978  142.7529  166.5738 C.ar    1  UNL1        0.0015
     27 C         140.5770  142.6667  168.0664 C.ar    1  UNL1        0.0000
     28 C         141.7960  142.4187  168.9045 C.ar    1  UNL1        0.0000
     29 C         143.1360  142.2570  168.2500 C.ar    1  UNL1        0.0000
     30 C         143.2568  142.3432  166.7573 C.ar    1  UNL1        0.0015
     31 C         141.2673  140.2382  163.7934 C.ar    1  UNL1        0.0658
     32 C         142.2106  139.0956  164.0272 C.ar    1  UNL1        0.0176
     33 C         141.6734  137.7380  164.3712 C.ar    1  UNL1        0.0015
     34 C         140.1931  137.5228  164.4813 C.ar    1  UNL1        0.0001
     35 C         139.2497  138.6654  164.2475 C.ar    1  UNL1        0.0015
     36 C         139.7868  140.0231  163.9035 C.ar    1  UNL1        0.0176
     37 N         138.4688  143.2547  160.0278 N.1     1  UNL1       -0.1907
     38 C         139.8188  143.0542  159.4055 C.1     1  UNL1        0.1035
@<TRIPOS>BOND
     1    37    38    3
     2    38     1    1
     3     1     2   ar
     4     2     7    1
     5     7     8   ar
     6     8     9   ar
     7     9    10   ar
     8    10    11   ar
     9    11    12   ar
    10     2     3   ar
    11     3     4   ar
    12     4    13    1
    13    13    14   ar
    14    14    15   ar
    15    15    16   ar
    16    16    17   ar
    17    17    18   ar
    18     4     5   ar
    19     5     6   ar
    20     6    19    1
    21    19    20    2
    22    20    21   ar
    23    21    22   ar
    24    22    23   ar
    25    23    25    1
    26    25    26   ar
    27    26    27   ar
    28    27    28   ar
    29    28    29   ar
    30    29    30   ar
    31    23    24   ar
    32    24    31    1
    33    31    32   ar
    34    32    33   ar
    35    33    34   ar
    36    34    35   ar
    37    35    36   ar
    38     6     1   ar
    39    24    20   ar
    40    36    31   ar
    41    12     7   ar
    42    18    13   ar
    43    30    25   ar
@<TRIPOS>MOLECULE
*****
 38 43 0 0 0
SMALL
GASTEIGER

@<TRIPOS>ATOM
      1 C         143.0140  140.6572  158.2603 C.ar    1  UNL1        0.1042
      2 C         143.6436  140.2263  156.9688 C.ar    1  UNL1        0.0141
      3 C         143.4510  138.8242  156.4717 C.ar    1  UNL1        0.0199
      4 C         142.6289  137.8531  157.2660 C.ar    1  UNL1        0.0830
      5 N         141.9994  138.2840  158.5575 N.ar    1  UNL1       -0.2259
      6 C         142.1919  139.6861  159.0546 C.ar    1  UNL1        0.1740
      7 C         144.4657  141.1974  156.1744 C.ar    1  UNL1        0.0008
      8 C         145.9315  141.3454  156.4561 C.ar    1  UNL1        0.0000
      9 C         146.7537  142.3165  155.6616 C.ar    1  UNL1        0.0000
     10 C         146.1099  143.1397  154.5855 C.ar    1  UNL1        0.0000
     11 C         144.6440  142.9916  154.3039 C.ar    1  UNL1        0.0000
     12 C         143.8219  142.0205  155.0983 C.ar    1  UNL1        0.0000
     13 C         142.4364  136.4510  156.7689 C.ar    1  UNL1        0.0177
     14 C         141.4102  136.1638  155.7132 C.ar    1  UNL1        0.0015
     15 C         141.2177  134.7618  155.2161 C.ar    1  UNL1        0.0000
     16 C         142.0513  133.6468  155.7747 C.ar    1  UNL1        0.0000
     17 C         143.0774  133.9340  156.8304 C.ar    1  UNL1        0.0000
     18 C         143.2699  135.3361  157.3275 C.ar    1  UNL1        0.0015
     19 N         141.5623  140.1170  160.3462 N.2     1  UNL1       -0.2023
     20 C         142.3371  140.0209  161.6270 C.ar    1  UNL1        0.1808
     21 S         143.7425  139.5169  161.7716 S.2     1  UNL1       -0.0480
     22 C         144.1164  139.5964  163.2221 C.ar    1  UNL1        0.0559
     23 C         142.9421  140.1495  163.9739 C.ar    1  UNL1        0.0723
     24 N         141.8424  140.4118  162.9880 N.ar    1  UNL1       -0.2861
     25 C         142.8786  140.3968  165.4520 C.ar    1  UNL1        0.0167
     26 C         142.6807  139.2486  166.3967 C.ar    1  UNL1        0.0015
     27 C         142.6172  139.4960  167.8748 C.ar    1  UNL1        0.0000
     28 C         142.7517  140.8914  168.4082 C.ar    1  UNL1        0.0000
     29 C         142.9497  142.0397  167.4635 C.ar    1  UNL1        0.0000
     30 C         143.0132  141.7923  165.9854 C.ar    1  UNL1        0.0015
     31 C         140.4863  140.9675  163.3072 C.ar    1  UNL1        0.0658
     32 C         140.3057  142.4451  163.4921 C.ar    1  UNL1        0.0176
     33 C         138.9495  143.0008  163.8113 C.ar    1  UNL1        0.0015
     34 C         137.7739  142.0791  163.9457 C.ar    1  UNL1        0.0001
     35 C         137.9543  140.6014  163.7608 C.ar    1  UNL1        0.0015
     36 C         139.3105  140.0457  163.4416 C.ar    1  UNL1        0.0176
     37 N         143.3991  143.4613  159.2545 N.1     1  UNL1       -0.1907
     38 C         143.2066  142.0593  158.7574 C.1     1  UNL1        0.1035
@<TRIPOS>BOND
     1    37    38    3
     2    38     1    1
     3     1     2   ar
     4     2     7    1
     5     7     8   ar
     6     8     9   ar
     7     9    10   ar
     8    10    11   ar
     9    11    12   ar
    10     2     3   ar
    11     3     4   ar
    12     4    13    1
    13    13    14   ar
    14    14    15   ar
    15    15    16   ar
    16    16    17   ar
    17    17    18   ar
    18     4     5   ar
    19     5     6   ar
    20     6    19    1
    21    19    20    2
    22    20    21   ar
    23    21    22   ar
    24    22    23   ar
    25    23    25    1
    26    25    26   ar
    27    26    27   ar
    28    27    28   ar
    29    28    29   ar
    30    29    30   ar
    31    23    24   ar
    32    24    31    1
    33    31    32   ar
    34    32    33   ar
    35    33    34   ar
    36    34    35   ar
    37    35    36   ar
    38     6     1   ar
    39    24    20   ar
    40    36    31   ar
    41    12     7   ar
    42    18    13   ar
    43    30    25   ar
@<TRIPOS>MOLECULE
*****
 38 43 0 0 0
SMALL
GASTEIGER

@<TRIPOS>ATOM
      1 C         140.6901  140.4076  158.5938 C.ar    1  UNL1        0.1042
      2 C         141.1256  139.9678  157.2275 C.ar    1  UNL1        0.0141
      3 C         142.4930  140.3252  156.7249 C.ar    1  UNL1        0.0199
      4 C         143.4249  141.1223  157.5887 C.ar    1  UNL1        0.0830
      5 N         142.9894  141.5621  158.9550 N.ar    1  UNL1       -0.2259
      6 C         141.6220  141.2047  159.4576 C.ar    1  UNL1        0.1740
      7 C         140.1937  139.1706  156.3636 C.ar    1  UNL1        0.0008
      8 C         139.2603  139.8714  155.4216 C.ar    1  UNL1        0.0000
      9 C         138.3284  139.0742  154.5577 C.ar    1  UNL1        0.0000
     10 C         138.3300  137.5762  154.6360 C.ar    1  UNL1        0.0000
     11 C         139.2635  136.8755  155.5782 C.ar    1  UNL1        0.0000
     12 C         140.1954  137.6727  156.4420 C.ar    1  UNL1        0.0000
     13 C         144.7922  141.4797  157.0861 C.ar    1  UNL1        0.0177
     14 C         145.6213  142.4903  157.8219 C.ar    1  UNL1        0.0015
     15 C         146.9887  142.8476  157.3193 C.ar    1  UNL1        0.0000
     16 C         147.5270  142.1944  156.0810 C.ar    1  UNL1        0.0000
     17 C         146.6979  141.1839  155.3452 C.ar    1  UNL1        0.0000
     18 C         145.3306  140.8265  155.8478 C.ar    1  UNL1        0.0015
     19 N         141.1865  141.6446  160.8240 N.2     1  UNL1       -0.2023
     20 C         141.9274  141.1664  162.0374 C.ar    1  UNL1        0.1808
     21 S         143.1158  140.2511  162.0410 S.2     1  UNL1       -0.0480
     22 C         143.5329  140.0386  163.4661 C.ar    1  UNL1        0.0559
     23 C         142.6022  140.8226  164.3432 C.ar    1  UNL1        0.0723
     24 N         141.6100  141.5196  163.4602 N.ar    1  UNL1       -0.2861
     25 C         142.6546  140.8965  165.8405 C.ar    1  UNL1        0.0167
     26 C         143.0410  142.1794  166.5150 C.ar    1  UNL1        0.0015
     27 C         143.0934  142.2533  168.0123 C.ar    1  UNL1        0.0000
     28 C         142.7594  141.0444  168.8350 C.ar    1  UNL1        0.0000
     29 C         142.3729  139.7615  168.1605 C.ar    1  UNL1        0.0000
     30 C         142.3206  139.6876  166.6633 C.ar    1  UNL1        0.0015
     31 C         140.4960  142.4129  163.9195 C.ar    1  UNL1        0.0658
     32 C         140.7420  143.8800  164.1121 C.ar    1  UNL1        0.0176
     33 C         139.6280  144.7733  164.5713 C.ar    1  UNL1        0.0015
     34 C         138.2680  144.1996  164.8380 C.ar    1  UNL1        0.0001
     35 C         138.0219  142.7325  164.6455 C.ar    1  UNL1        0.0015
     36 C         139.1359  141.8392  164.1862 C.ar    1  UNL1        0.0176
     37 N         137.9554  139.6928  159.5989 N.1     1  UNL1       -0.1907
     38 C         139.3227  140.0502  159.0964 C.1     1  UNL1        0.1035
@<TRIPOS>BOND
     1    37    38    3
     2    38     1    1
     3     1     2   ar
     4     2     7    1
     5     7     8   ar
     6     8     9   ar
     7     9    10   ar
     8    10    11   ar
     9    11    12   ar
    10     2     3   ar
    11     3     4   ar
    12     4    13    1
    13    13    14   ar
    14    14    15   ar
    15    15    16   ar
    16    16    17   ar
    17    17    18   ar
    18     4     5   ar
    19     5     6   ar
    20     6    19    1
    21    19    20    2
    22    20    21   ar
    23    21    22   ar
    24    22    23   ar
    25    23    25    1
    26    25    26   ar
    27    26    27   ar
    28    27    28   ar
    29    28    29   ar
    30    29    30   ar
    31    23    24   ar
    32    24    31    1
    33    31    32   ar
    34    32    33   ar
    35    33    34   ar
    36    34    35   ar
    37    35    36   ar
    38     6     1   ar
    39    24    20   ar
    40    36    31   ar
    41    12     7   ar
    42    18    13   ar
    43    30    25   ar
@<TRIPOS>MOLECULE
*****
 38 43 0 0 0
SMALL
GASTEIGER

@<TRIPOS>ATOM
      1 C         139.6047  141.0960  159.1840 C.ar    1  UNL1        0.1042
      2 C         139.8356  141.2855  157.7141 C.ar    1  UNL1        0.0141
      3 C         140.7683  140.3706  156.9772 C.ar    1  UNL1        0.0199
      4 C         141.4701  139.2661  157.7103 C.ar    1  UNL1        0.0830
      5 N         141.2392  139.0765  159.1802 N.ar    1  UNL1       -0.2259
      6 C         140.3065  139.9915  159.9171 C.ar    1  UNL1        0.1740
      7 C         139.1338  142.3901  156.9809 C.ar    1  UNL1        0.0008
      8 C         139.8329  143.6960  156.7445 C.ar    1  UNL1        0.0000
      9 C         139.1311  144.8005  156.0113 C.ar    1  UNL1        0.0000
     10 C         137.7301  144.5991  155.5145 C.ar    1  UNL1        0.0000
     11 C         137.0310  143.2932  155.7509 C.ar    1  UNL1        0.0000
     12 C         137.7328  142.1887  156.4841 C.ar    1  UNL1        0.0000
     13 C         142.4028  138.3511  156.9735 C.ar    1  UNL1        0.0177
     14 C         143.4129  138.9184  156.0208 C.ar    1  UNL1        0.0015
     15 C         144.3456  138.0034  155.2840 C.ar    1  UNL1        0.0000
     16 C         144.2681  136.5211  155.4998 C.ar    1  UNL1        0.0000
     17 C         143.2580  135.9538  156.4525 C.ar    1  UNL1        0.0000
     18 C         142.3253  136.8687  157.1893 C.ar    1  UNL1        0.0015
     19 N         140.0757  139.8019  161.3871 N.2     1  UNL1       -0.2023
     20 C         140.7393  140.7155  162.3744 C.ar    1  UNL1        0.1808
     21 S         141.6551  141.8563  162.0428 S.2     1  UNL1       -0.0480
     22 C         142.0855  142.4945  163.3302 C.ar    1  UNL1        0.0559
     23 C         141.4358  141.7481  164.4575 C.ar    1  UNL1        0.0723
     24 N         140.6038  140.6486  163.8668 N.ar    1  UNL1       -0.2861
     25 C         141.5908  142.0485  165.9190 C.ar    1  UNL1        0.0167
     26 C         142.8788  141.7284  166.6179 C.ar    1  UNL1        0.0015
     27 C         143.0338  142.0288  168.0794 C.ar    1  UNL1        0.0000
     28 C         141.9008  142.6492  168.8418 C.ar    1  UNL1        0.0000
     29 C         140.6127  142.9693  168.1428 C.ar    1  UNL1        0.0000
     30 C         140.4578  142.6689  166.6814 C.ar    1  UNL1        0.0015
     31 C         139.7808  139.6565  164.6338 C.ar    1  UNL1        0.0658
     32 C         140.0588  138.1886  164.5001 C.ar    1  UNL1        0.0176
     33 C         139.2358  137.1965  165.2671 C.ar    1  UNL1        0.0015
     34 C         138.1347  137.6721  166.1678 C.ar    1  UNL1        0.0001
     35 C         137.8566  139.1401  166.3016 C.ar    1  UNL1        0.0015
     36 C         138.6796  140.1322  165.5346 C.ar    1  UNL1        0.0176
     37 N         137.7394  142.9260  160.6576 N.1     1  UNL1       -0.1907
     38 C         138.6720  142.0110  159.9208 C.1     1  UNL1        0.1035
@<TRIPOS>BOND
     1    37    38    3
     2    38     1    1
     3     1     2   ar
     4     2     7    1
     5     7     8   ar
     6     8     9   ar
     7     9    10   ar
     8    10    11   ar
     9    11    12   ar
    10     2     3   ar
    11     3     4   ar
    12     4    13    1
    13    13    14   ar
    14    14    15   ar
    15    15    16   ar
    16    16    17   ar
    17    17    18   ar
    18     4     5   ar
    19     5     6   ar
    20     6    19    1
    21    19    20    2
    22    20    21   ar
    23    21    22   ar
    24    22    23   ar
    25    23    25    1
    26    25    26   ar
    27    26    27   ar
    28    27    28   ar
    29    28    29   ar
    30    29    30   ar
    31    23    24   ar
    32    24    31    1
    33    31    32   ar
    34    32    33   ar
    35    33    34   ar
    36    34    35   ar
    37    35    36   ar
    38     6     1   ar
    39    24    20   ar
    40    36    31   ar
    41    12     7   ar
    42    18    13   ar
    43    30    25   ar
@<TRIPOS>MOLECULE
*****
 38 43 0 0 0
SMALL
GASTEIGER

@<TRIPOS>ATOM
      1 C         139.8260  140.7629  158.4247 C.ar    1  UNL1        0.1042
      2 C         139.3036  140.2066  157.1334 C.ar    1  UNL1        0.0141
      3 C         139.8770  138.9370  156.5771 C.ar    1  UNL1        0.0199
      4 C         140.9728  138.2238  157.3122 C.ar    1  UNL1        0.0830
      5 N         141.4952  138.7801  158.6035 N.ar    1  UNL1       -0.2259
      6 C         140.9218  140.0496  159.1597 C.ar    1  UNL1        0.1740
      7 C         138.2077  140.9198  156.3982 C.ar    1  UNL1        0.0008
      8 C         138.5467  141.9334  155.3458 C.ar    1  UNL1        0.0000
      9 C         137.4508  142.6467  154.6107 C.ar    1  UNL1        0.0000
     10 C         136.0159  142.3463  154.9280 C.ar    1  UNL1        0.0000
     11 C         135.6768  141.3327  155.9805 C.ar    1  UNL1        0.0000
     12 C         136.7727  140.6195  156.7156 C.ar    1  UNL1        0.0000
     13 C         141.5462  136.9542  156.7559 C.ar    1  UNL1        0.0177
     14 C         140.8286  136.2243  155.6595 C.ar    1  UNL1        0.0015
     15 C         141.4020  134.9548  155.1032 C.ar    1  UNL1        0.0000
     16 C         142.6931  134.4151  155.6434 C.ar    1  UNL1        0.0000
     17 C         143.4107  135.1450  156.7398 C.ar    1  UNL1        0.0000
     18 C         142.8373  136.4146  157.2961 C.ar    1  UNL1        0.0015
     19 N         141.4443  140.6059  160.4511 N.2     1  UNL1       -0.2023
     20 C         141.0392  139.9835  161.7543 C.ar    1  UNL1        0.1808
     21 S         140.1238  138.8072  161.9228 S.2     1  UNL1       -0.0480
     22 C         139.9972  138.5247  163.3905 C.ar    1  UNL1        0.0559
     23 C         140.8345  139.5265  164.1291 C.ar    1  UNL1        0.0723
     24 N         141.4784  140.4280  163.1179 N.ar    1  UNL1       -0.2861
     25 C         140.9988  139.6117  165.6177 C.ar    1  UNL1        0.0167
     26 C         139.8284  139.9768  166.4818 C.ar    1  UNL1        0.0015
     27 C         139.9927  140.0621  167.9704 C.ar    1  UNL1        0.0000
     28 C         141.3276  139.7822  168.5948 C.ar    1  UNL1        0.0000
     29 C         142.4981  139.4171  167.7307 C.ar    1  UNL1        0.0000
     30 C         142.3336  139.3319  166.2421 C.ar    1  UNL1        0.0015
     31 C         142.3998  141.5731  163.4178 C.ar    1  UNL1        0.0658
     32 C         143.8790  141.3414  163.5089 C.ar    1  UNL1        0.0176
     33 C         144.8004  142.4865  163.8087 C.ar    1  UNL1        0.0015
     34 C         144.2427  143.8631  164.0174 C.ar    1  UNL1        0.0001
     35 C         142.7634  144.0949  163.9264 C.ar    1  UNL1        0.0015
     36 C         141.8421  142.9498  163.6265 C.ar    1  UNL1        0.0176
     37 N         138.6792  143.3020  159.5372 N.1     1  UNL1       -0.1907
     38 C         139.2526  142.0325  158.9809 C.1     1  UNL1        0.1035
@<TRIPOS>BOND
     1    37    38    3
     2    38     1    1
     3     1     2   ar
     4     2     7    1
     5     7     8   ar
     6     8     9   ar
     7     9    10   ar
     8    10    11   ar
     9    11    12   ar
    10     2     3   ar
    11     3     4   ar
    12     4    13    1
    13    13    14   ar
    14    14    15   ar
    15    15    16   ar
    16    16    17   ar
    17    17    18   ar
    18     4     5   ar
    19     5     6   ar
    20     6    19    1
    21    19    20    2
    22    20    21   ar
    23    21    22   ar
    24    22    23   ar
    25    23    25    1
    26    25    26   ar
    27    26    27   ar
    28    27    28   ar
    29    28    29   ar
    30    29    30   ar
    31    23    24   ar
    32    24    31    1
    33    31    32   ar
    34    32    33   ar
    35    33    34   ar
    36    34    35   ar
    37    35    36   ar
    38     6     1   ar
    39    24    20   ar
    40    36    31   ar
    41    12     7   ar
    42    18    13   ar
    43    30    25   ar
@<TRIPOS>MOLECULE
*****
 38 43 0 0 0
SMALL
GASTEIGER

@<TRIPOS>ATOM
      1 C         143.7337  139.7115  156.8015 C.ar    1  UNL1        0.1042
      2 C         143.7931  139.4126  155.3328 C.ar    1  UNL1        0.0141
      3 C         143.4372  138.0446  154.8308 C.ar    1  UNL1        0.0199
      4 C         143.0219  136.9755  155.7975 C.ar    1  UNL1        0.0830
      5 N         142.9625  137.2744  157.2662 N.ar    1  UNL1       -0.2259
      6 C         143.3184  138.6424  157.7682 C.ar    1  UNL1        0.1740
      7 C         144.2084  140.4817  154.3660 C.ar    1  UNL1        0.0008
      8 C         145.6558  140.6501  154.0103 C.ar    1  UNL1        0.0000
      9 C         146.0711  141.7192  153.0435 C.ar    1  UNL1        0.0000
     10 C         145.0389  142.6199  152.4325 C.ar    1  UNL1        0.0000
     11 C         143.5914  142.4514  152.7882 C.ar    1  UNL1        0.0000
     12 C         143.1762  141.3824  153.7549 C.ar    1  UNL1        0.0000
     13 C         142.6660  135.6076  155.2955 C.ar    1  UNL1        0.0177
     14 C         142.6630  134.4403  156.2375 C.ar    1  UNL1        0.0015
     15 C         142.3071  133.0723  155.7356 C.ar    1  UNL1        0.0000
     16 C         141.9542  132.8716  154.2916 C.ar    1  UNL1        0.0000
     17 C         141.9573  134.0389  153.3496 C.ar    1  UNL1        0.0000
     18 C         142.3132  135.4069  153.8515 C.ar    1  UNL1        0.0015
     19 N         143.2590  138.9413  159.2370 N.2     1  UNL1       -0.2023
     20 C         141.9464  138.8867  159.9609 C.ar    1  UNL1        0.1808
     21 S         140.6173  138.5500  159.3526 S.2     1  UNL1       -0.0480
     22 C         139.5820  138.6144  160.4361 C.ar    1  UNL1        0.0559
     23 C         140.2713  138.9910  161.7140 C.ar    1  UNL1        0.0723
     24 N         141.7326  139.1593  161.4204 N.ar    1  UNL1       -0.2861
     25 C         139.6145  139.1683  163.0509 C.ar    1  UNL1        0.0167
     26 C         139.1881  140.5338  163.5020 C.ar    1  UNL1        0.0015
     27 C         138.5313  140.7110  164.8389 C.ar    1  UNL1        0.0000
     28 C         138.3010  139.5227  165.7248 C.ar    1  UNL1        0.0000
     29 C         138.7274  138.1571  165.2737 C.ar    1  UNL1        0.0000
     30 C         139.3841  137.9799  163.9368 C.ar    1  UNL1        0.0015
     31 C         142.7936  139.5343  162.4120 C.ar    1  UNL1        0.0658
     32 C         143.0345  138.6714  163.6150 C.ar    1  UNL1        0.0176
     33 C         144.0956  139.0464  164.6067 C.ar    1  UNL1        0.0015
     34 C         144.9158  140.2843  164.3955 C.ar    1  UNL1        0.0001
     35 C         144.6750  141.1473  163.1924 C.ar    1  UNL1        0.0015
     36 C         143.6139  140.7723  162.2008 C.ar    1  UNL1        0.0176
     37 N         144.4455  142.4474  157.8055 N.1     1  UNL1       -0.1907
     38 C         144.0896  141.0795  157.3035 C.1     1  UNL1        0.1035
@<TRIPOS>BOND
     1    37    38    3
     2    38     1    1
     3     1     2   ar
     4     2     7    1
     5     7     8   ar
     6     8     9   ar
     7     9    10   ar
     8    10    11   ar
     9    11    12   ar
    10     2     3   ar
    11     3     4   ar
    12     4    13    1
    13    13    14   ar
    14    14    15   ar
    15    15    16   ar
    16    16    17   ar
    17    17    18   ar
    18     4     5   ar
    19     5     6   ar
    20     6    19    1
    21    19    20    2
    22    20    21   ar
    23    21    22   ar
    24    22    23   ar
    25    23    25    1
    26    25    26   ar
    27    26    27   ar
    28    27    28   ar
    29    28    29   ar
    30    29    30   ar
    31    23    24   ar
    32    24    31    1
    33    31    32   ar
    34    32    33   ar
    35    33    34   ar
    36    34    35   ar
    37    35    36   ar
    38     6     1   ar
    39    24    20   ar
    40    36    31   ar
    41    12     7   ar
    42    18    13   ar
    43    30    25   ar
@<TRIPOS>MOLECULE
*****
 38 43 0 0 0
SMALL
GASTEIGER

@<TRIPOS>ATOM
      1 C         142.4370  141.0587  158.8762 C.ar    1  UNL1        0.1042
      2 C         142.7057  141.5415  157.4817 C.ar    1  UNL1        0.0141
      3 C         141.6403  142.2774  156.7245 C.ar    1  UNL1        0.0199
      4 C         140.3063  142.5306  157.3618 C.ar    1  UNL1        0.0830
      5 N         140.0376  142.0479  158.7563 N.ar    1  UNL1       -0.2259
      6 C         141.1030  141.3119  159.5135 C.ar    1  UNL1        0.1740
      7 C         144.0397  141.2883  156.8443 C.ar    1  UNL1        0.0008
      8 C         144.2271  140.1053  155.9414 C.ar    1  UNL1        0.0000
      9 C         145.5612  139.8521  155.3040 C.ar    1  UNL1        0.0000
     10 C         146.7079  140.7820  155.5696 C.ar    1  UNL1        0.0000
     11 C         146.5204  141.9651  156.4726 C.ar    1  UNL1        0.0000
     12 C         145.1864  142.2182  157.1099 C.ar    1  UNL1        0.0000
     13 C         139.2409  143.2666  156.6046 C.ar    1  UNL1        0.0177
     14 C         137.8501  142.7092  156.5339 C.ar    1  UNL1        0.0015
     15 C         136.7847  143.4451  155.7767 C.ar    1  UNL1        0.0000
     16 C         137.1101  144.7385  155.0902 C.ar    1  UNL1        0.0000
     17 C         138.5009  145.2958  155.1608 C.ar    1  UNL1        0.0000
     18 C         139.5663  144.5599  155.9180 C.ar    1  UNL1        0.0015
     19 N         140.8342  140.8292  160.9081 N.2     1  UNL1       -0.2023
     20 C         141.2604  141.6576  162.0837 C.ar    1  UNL1        0.1808
     21 S         141.9609  142.9825  162.0211 S.2     1  UNL1       -0.0480
     22 C         142.1943  143.4504  163.4270 C.ar    1  UNL1        0.0559
     23 C         141.6379  142.4146  164.3586 C.ar    1  UNL1        0.0723
     24 N         141.0608  141.3066  163.5283 N.ar    1  UNL1       -0.2861
     25 C         141.6557  142.4760  165.8572 C.ar    1  UNL1        0.0167
     26 C         142.9042  142.1184  166.6078 C.ar    1  UNL1        0.0015
     27 C         142.9219  142.1798  168.1064 C.ar    1  UNL1        0.0000
     28 C         141.6911  142.5988  168.8545 C.ar    1  UNL1        0.0000
     29 C         140.4425  142.9564  168.1040 C.ar    1  UNL1        0.0000
     30 C         140.4249  142.8950  166.6053 C.ar    1  UNL1        0.0015
     31 C         140.4000  140.0656  164.0510 C.ar    1  UNL1        0.0658
     32 C         141.1181  138.7502  163.9878 C.ar    1  UNL1        0.0176
     33 C         140.4574  137.5091  164.5104 C.ar    1  UNL1        0.0015
     34 C         139.0786  137.5834  165.0963 C.ar    1  UNL1        0.0001
     35 C         138.3604  138.8988  165.1595 C.ar    1  UNL1        0.0015
     36 C         139.0211  140.1398  164.6369 C.ar    1  UNL1        0.0176
     37 N         144.5677  139.5869  160.3906 N.1     1  UNL1       -0.1907
     38 C         143.5024  140.3228  159.6334 C.1     1  UNL1        0.1035
@<TRIPOS>BOND
     1    37    38    3
     2    38     1    1
     3     1     2   ar
     4     2     7    1
     5     7     8   ar
     6     8     9   ar
     7     9    10   ar
     8    10    11   ar
     9    11    12   ar
    10     2     3   ar
    11     3     4   ar
    12     4    13    1
    13    13    14   ar
    14    14    15   ar
    15    15    16   ar
    16    16    17   ar
    17    17    18   ar
    18     4     5   ar
    19     5     6   ar
    20     6    19    1
    21    19    20    2
    22    20    21   ar
    23    21    22   ar
    24    22    23   ar
    25    23    25    1
    26    25    26   ar
    27    26    27   ar
    28    27    28   ar
    29    28    29   ar
    30    29    30   ar
    31    23    24   ar
    32    24    31    1
    33    31    32   ar
    34    32    33   ar
    35    33    34   ar
    36    34    35   ar
    37    35    36   ar
    38     6     1   ar
    39    24    20   ar
    40    36    31   ar
    41    12     7   ar
    42    18    13   ar
    43    30    25   ar
@<TRIPOS>MOLECULE
*****
 38 43 0 0 0
SMALL
GASTEIGER

@<TRIPOS>ATOM
      1 C         142.3517  139.4660  158.0352 C.ar    1  UNL1        0.1042
      2 C         142.9028  138.8074  156.8054 C.ar    1  UNL1        0.0141
      3 C         144.0765  139.4115  156.0931 C.ar    1  UNL1        0.0199
      4 C         144.6992  140.6742  156.6106 C.ar    1  UNL1        0.0830
      5 N         144.1481  141.3328  157.8404 N.ar    1  UNL1       -0.2259
      6 C         142.9744  140.7287  158.5527 C.ar    1  UNL1        0.1740
      7 C         142.2801  137.5446  156.2879 C.ar    1  UNL1        0.0008
      8 C         141.0897  137.6136  155.3779 C.ar    1  UNL1        0.0000
      9 C         140.4671  136.3508  154.8603 C.ar    1  UNL1        0.0000
     10 C         141.0349  135.0191  155.2528 C.ar    1  UNL1        0.0000
     11 C         142.2254  134.9501  156.1629 C.ar    1  UNL1        0.0000
     12 C         142.8480  136.2129  156.6803 C.ar    1  UNL1        0.0000
     13 C         145.8729  141.2783  155.8982 C.ar    1  UNL1        0.0177
     14 C         146.8329  142.1560  156.6451 C.ar    1  UNL1        0.0015
     15 C         148.0067  142.7601  155.9328 C.ar    1  UNL1        0.0000
     16 C         148.2203  142.4865  154.4735 C.ar    1  UNL1        0.0000
     17 C         147.2603  141.6088  153.7266 C.ar    1  UNL1        0.0000
     18 C         146.0866  141.0047  154.4390 C.ar    1  UNL1        0.0015
     19 N         142.4233  141.3874  159.7826 N.2     1  UNL1       -0.2023
     20 C         142.8985  140.9594  161.1394 C.ar    1  UNL1        0.1808
     21 S         143.9145  139.8927  161.4219 S.2     1  UNL1       -0.0480
     22 C         144.0851  139.7970  162.9091 C.ar    1  UNL1        0.0559
     23 C         143.1744  140.8047  163.5458 C.ar    1  UNL1        0.0723
     24 N         142.4410  141.5231  162.4521 N.ar    1  UNL1       -0.2861
     25 C         143.0235  141.0508  165.0178 C.ar    1  UNL1        0.0167
     26 C         142.3335  140.0365  165.8809 C.ar    1  UNL1        0.0015
     27 C         142.1827  140.2825  167.3529 C.ar    1  UNL1        0.0000
     28 C         142.7218  141.5429  167.9617 C.ar    1  UNL1        0.0000
     29 C         143.4118  142.5574  167.0986 C.ar    1  UNL1        0.0000
     30 C         143.5626  142.3112  165.6266 C.ar    1  UNL1        0.0015
     31 C         141.4281  142.6136  162.6383 C.ar    1  UNL1        0.0658
     32 C         139.9666  142.2795  162.6865 C.ar    1  UNL1        0.0176
     33 C         138.9537  143.3700  162.8728 C.ar    1  UNL1        0.0015
     34 C         139.4022  144.7947  163.0109 C.ar    1  UNL1        0.0001
     35 C         140.8637  145.1289  162.9628 C.ar    1  UNL1        0.0015
     36 C         141.8767  144.0383  162.7765 C.ar    1  UNL1        0.0176
     37 N         140.0043  138.2578  159.4599 N.1     1  UNL1       -0.1907
     38 C         141.1780  138.8619  158.7476 C.1     1  UNL1        0.1035
@<TRIPOS>BOND
     1    37    38    3
     2    38     1    1
     3     1     2   ar
     4     2     7    1
     5     7     8   ar
     6     8     9   ar
     7     9    10   ar
     8    10    11   ar
     9    11    12   ar
    10     2     3   ar
    11     3     4   ar
    12     4    13    1
    13    13    14   ar
    14    14    15   ar
    15    15    16   ar
    16    16    17   ar
    17    17    18   ar
    18     4     5   ar
    19     5     6   ar
    20     6    19    1
    21    19    20    2
    22    20    21   ar
    23    21    22   ar
    24    22    23   ar
    25    23    25    1
    26    25    26   ar
    27    26    27   ar
    28    27    28   ar
    29    28    29   ar
    30    29    30   ar
    31    23    24   ar
    32    24    31    1
    33    31    32   ar
    34    32    33   ar
    35    33    34   ar
    36    34    35   ar
    37    35    36   ar
    38     6     1   ar
    39    24    20   ar
    40    36    31   ar
    41    12     7   ar
    42    18    13   ar
    43    30    25   ar
