@<TRIPOS>MOLECULE
*****
 24 27 0 0 0
SMALL
GASTEIGER

@<TRIPOS>ATOM
      1 C         141.3821  140.7101  165.6066 C.3     1  UNL1        0.0991
      2 C         138.0606  137.7195  166.1302 C.ar    1  UNL1       -0.0000
      3 C         139.0816  137.5247  165.0487 C.ar    1  UNL1       -0.0003
      4 C         140.1888  138.5216  164.8742 C.ar    1  UNL1       -0.0029
      5 C         140.2749  139.7132  165.7811 C.ar    1  UNL1       -0.0061
      6 C         139.2539  139.9080  166.8626 C.ar    1  UNL1       -0.0029
      7 C         138.1468  138.9111  167.0371 C.ar    1  UNL1       -0.0003
      8 N         142.6359  140.3192  164.8820 N.3     1  UNL1       -0.2690
      9 C         143.0164  140.7336  163.4914 C.3     1  UNL1        0.0724
     10 C         144.3451  140.1158  163.1708 C.3     1  UNL1        0.0188
     11 C         144.7859  139.3195  164.3631 C.3     1  UNL1        0.0188
     12 C         143.7295  139.4452  165.4207 C.3     1  UNL1        0.0724
     13 C         141.2354  142.0978  166.1566 C.3     1  UNL1        0.0991
     14 C         141.6572  142.3948  167.5651 C.ar    1  UNL1       -0.0061
     15 C         143.0627  142.1079  168.0034 C.ar    1  UNL1       -0.0029
     16 C         143.4845  142.4049  169.4119 C.ar    1  UNL1       -0.0003
     17 C         142.5007  142.9889  170.3821 C.ar    1  UNL1       -0.0000
     18 C         141.0952  143.2758  169.9437 C.ar    1  UNL1       -0.0003
     19 C         140.6734  142.9788  168.5352 C.ar    1  UNL1       -0.0029
     20 N         140.6669  143.1887  165.2980 N.3     1  UNL1       -0.2690
     21 C         139.2281  143.6096  165.2450 C.3     1  UNL1        0.0724
     22 C         139.1094  144.7311  164.2561 C.3     1  UNL1        0.0188
     23 C         140.4749  145.0034  163.6978 C.3     1  UNL1        0.0188
     24 C         141.4374  144.0501  164.3418 C.3     1  UNL1        0.0724
@<TRIPOS>BOND
     1     2     3   ar
     2     3     4   ar
     3     4     5   ar
     4     5     1    1
     5     1    13    1
     6    13    14    1
     7    14    15   ar
     8    15    16   ar
     9    16    17   ar
    10    17    18   ar
    11    18    19   ar
    12    13    20    1
    13    20    21    1
    14    21    22    1
    15    22    23    1
    16    23    24    1
    17     1     8    1
    18     8     9    1
    19     9    10    1
    20    10    11    1
    21    11    12    1
    22     5     6   ar
    23     6     7   ar
    24     7     2   ar
    25    19    14   ar
    26    24    20    1
    27    12     8    1
@<TRIPOS>MOLECULE
*****
 24 27 0 0 0
SMALL
GASTEIGER

@<TRIPOS>ATOM
      1 C         141.2261  142.0999  166.1454 C.3     1  UNL1        0.0991
      2 C         142.4965  143.0024  170.3670 C.ar    1  UNL1       -0.0000
      3 C         141.0893  143.2842  169.9307 C.ar    1  UNL1       -0.0003
      4 C         140.6658  142.9834  168.5235 C.ar    1  UNL1       -0.0029
      5 C         141.6495  142.4007  167.5526 C.ar    1  UNL1       -0.0061
      6 C         143.0567  142.1188  167.9889 C.ar    1  UNL1       -0.0029
      7 C         143.4802  142.4196  169.3961 C.ar    1  UNL1       -0.0003
      8 N         140.6455  143.1855  165.2886 N.3     1  UNL1       -0.2690
      9 C         141.4099  144.0728  164.3513 C.3     1  UNL1        0.0724
     10 C         140.4354  145.0102  163.7020 C.3     1  UNL1        0.0188
     11 C         139.0686  144.7023  164.2379 C.3     1  UNL1        0.0188
     12 C         139.1985  143.5746  165.2185 C.3     1  UNL1        0.0724
     13 C         141.3832  140.7134  165.5951 C.3     1  UNL1        0.0991
     14 C         140.2818  139.7095  165.7655 C.ar    1  UNL1       -0.0061
     15 C         140.2152  138.5095  164.8678 C.ar    1  UNL1       -0.0029
     16 C         139.1137  137.5056  165.0382 C.ar    1  UNL1       -0.0003
     17 C         138.0789  137.7017  166.1063 C.ar    1  UNL1       -0.0000
     18 C         138.1455  138.9016  167.0040 C.ar    1  UNL1       -0.0003
     19 C         139.2470  139.9055  166.8335 C.ar    1  UNL1       -0.0029
     20 N         142.6419  140.3307  164.8743 N.3     1  UNL1       -0.2690
     21 C         143.7320  139.4507  165.4101 C.3     1  UNL1        0.0724
     22 C         144.7951  139.3370  164.3581 C.3     1  UNL1        0.0188
     23 C         144.3620  140.1468  163.1720 C.3     1  UNL1        0.0188
     24 C         143.0312  140.7609  163.4910 C.3     1  UNL1        0.0724
@<TRIPOS>BOND
     1     2     3   ar
     2     3     4   ar
     3     4     5   ar
     4     5     1    1
     5     1    13    1
     6    13    14    1
     7    14    15   ar
     8    15    16   ar
     9    16    17   ar
    10    17    18   ar
    11    18    19   ar
    12    13    20    1
    13    20    21    1
    14    21    22    1
    15    22    23    1
    16    23    24    1
    17     1     8    1
    18     8     9    1
    19     9    10    1
    20    10    11    1
    21    11    12    1
    22     5     6   ar
    23     6     7   ar
    24     7     2   ar
    25    19    14   ar
    26    24    20    1
    27    12     8    1
@<TRIPOS>MOLECULE
*****
 24 27 0 0 0
SMALL
GASTEIGER

@<TRIPOS>ATOM
      1 C         141.7062  141.6132  166.1894 C.3     1  UNL1        0.0991
      2 C         142.1203  143.1861  170.3851 C.ar    1  UNL1       -0.0000
      3 C         143.2920  142.5396  169.7075 C.ar    1  UNL1       -0.0003
      4 C         143.1539  142.0153  168.3089 C.ar    1  UNL1       -0.0029
      5 C         141.8442  142.1375  167.5880 C.ar    1  UNL1       -0.0061
      6 C         140.6726  142.7840  168.2656 C.ar    1  UNL1       -0.0029
      7 C         140.8107  143.3083  169.6642 C.ar    1  UNL1       -0.0003
      8 N         142.9297  141.2643  165.3950 N.3     1  UNL1       -0.2690
      9 C         143.5055  139.8902  165.2204 C.3     1  UNL1        0.0724
     10 C         144.7240  140.0049  164.3532 C.3     1  UNL1        0.0188
     11 C         144.9015  141.4499  163.9918 C.3     1  UNL1        0.0188
     12 C         143.7925  142.2283  164.6357 C.3     1  UNL1        0.0724
     13 C         140.3445  141.4378  165.5852 C.3     1  UNL1        0.0991
     14 C         139.6852  140.0906  165.6003 C.ar    1  UNL1       -0.0061
     15 C         138.7112  139.7444  166.6873 C.ar    1  UNL1       -0.0029
     16 C         138.0518  138.3972  166.7024 C.ar    1  UNL1       -0.0003
     17 C         138.3665  137.3961  165.6305 C.ar    1  UNL1       -0.0000
     18 C         139.3404  137.7423  164.5435 C.ar    1  UNL1       -0.0003
     19 C         139.9997  139.0896  164.5284 C.ar    1  UNL1       -0.0029
     20 N         139.6422  142.6097  164.9658 N.3     1  UNL1       -0.2690
     21 C         140.2534  143.9462  164.6661 C.3     1  UNL1        0.0724
     22 C         139.1943  144.8132  164.0525 C.3     1  UNL1        0.0188
     23 C         137.9283  144.0125  163.9730 C.3     1  UNL1        0.0188
     24 C         138.2052  142.6506  164.5374 C.3     1  UNL1        0.0724
@<TRIPOS>BOND
     1     2     3   ar
     2     3     4   ar
     3     4     5   ar
     4     5     1    1
     5     1    13    1
     6    13    14    1
     7    14    15   ar
     8    15    16   ar
     9    16    17   ar
    10    17    18   ar
    11    18    19   ar
    12    13    20    1
    13    20    21    1
    14    21    22    1
    15    22    23    1
    16    23    24    1
    17     1     8    1
    18     8     9    1
    19     9    10    1
    20    10    11    1
    21    11    12    1
    22     5     6   ar
    23     6     7   ar
    24     7     2   ar
    25    19    14   ar
    26    24    20    1
    27    12     8    1
@<TRIPOS>MOLECULE
*****
 24 27 0 0 0
SMALL
GASTEIGER

@<TRIPOS>ATOM
      1 C         140.3791  141.4968  165.5111 C.3     1  UNL1        0.0991
      2 C         138.4650  137.4242  165.5326 C.ar    1  UNL1       -0.0000
      3 C         138.1188  138.4213  166.5983 C.ar    1  UNL1       -0.0003
      4 C         138.7568  139.7788  166.5912 C.ar    1  UNL1       -0.0029
      5 C         139.7411  140.1393  165.5182 C.ar    1  UNL1       -0.0061
      6 C         140.0873  139.1422  164.4524 C.ar    1  UNL1       -0.0029
      7 C         139.4492  137.7847  164.4596 C.ar    1  UNL1       -0.0003
      8 N         139.6659  142.6574  164.8832 N.3     1  UNL1       -0.2690
      9 C         138.2406  142.6682  164.4158 C.3     1  UNL1        0.0724
     10 C         137.9465  144.0285  163.8562 C.3     1  UNL1        0.0188
     11 C         139.1901  144.8585  163.9777 C.3     1  UNL1        0.0188
     12 C         140.2528  144.0110  164.6125 C.3     1  UNL1        0.0724
     13 C         141.7304  141.6937  166.1318 C.3     1  UNL1        0.0991
     14 C         141.8424  142.1867  167.5440 C.ar    1  UNL1       -0.0061
     15 C         140.6533  142.8025  168.2199 C.ar    1  UNL1       -0.0029
     16 C         140.7653  143.2956  169.6321 C.ar    1  UNL1       -0.0003
     17 C         142.0664  143.1728  170.3684 C.ar    1  UNL1       -0.0000
     18 C         143.2555  142.5570  169.6925 C.ar    1  UNL1       -0.0003
     19 C         143.1435  142.0639  168.2802 C.ar    1  UNL1       -0.0029
     20 N         142.9697  141.3975  165.3402 N.3     1  UNL1       -0.2690
     21 C         143.8207  142.4046  164.6249 C.3     1  UNL1        0.0724
     22 C         144.9525  141.6718  163.9677 C.3     1  UNL1        0.0188
     23 C         144.8010  140.2117  164.2768 C.3     1  UNL1        0.0188
     24 C         143.5756  140.0423  165.1251 C.3     1  UNL1        0.0724
@<TRIPOS>BOND
     1     2     3   ar
     2     3     4   ar
     3     4     5   ar
     4     5     1    1
     5     1    13    1
     6    13    14    1
     7    14    15   ar
     8    15    16   ar
     9    16    17   ar
    10    17    18   ar
    11    18    19   ar
    12    13    20    1
    13    20    21    1
    14    21    22    1
    15    22    23    1
    16    23    24    1
    17     1     8    1
    18     8     9    1
    19     9    10    1
    20    10    11    1
    21    11    12    1
    22     5     6   ar
    23     6     7   ar
    24     7     2   ar
    25    19    14   ar
    26    24    20    1
    27    12     8    1
@<TRIPOS>MOLECULE
*****
 24 27 0 0 0
SMALL
GASTEIGER

@<TRIPOS>ATOM
      1 C         140.2545  141.4240  165.7547 C.3     1  UNL1        0.0991
      2 C         138.2690  137.3859  165.7880 C.ar    1  UNL1       -0.0000
      3 C         137.9561  138.3844  166.8627 C.ar    1  UNL1       -0.0003
      4 C         138.6179  139.7304  166.8516 C.ar    1  UNL1       -0.0029
      5 C         139.5927  140.0780  165.7658 C.ar    1  UNL1       -0.0061
      6 C         139.9056  139.0795  164.6911 C.ar    1  UNL1       -0.0029
      7 C         139.2437  137.7334  164.7022 C.ar    1  UNL1       -0.0003
      8 N         139.5625  142.5948  165.1221 N.3     1  UNL1       -0.2690
      9 C         140.1330  143.9723  164.9567 C.3     1  UNL1        0.0724
     10 C         139.1016  144.8226  164.2762 C.3     1  UNL1        0.0188
     11 C         137.8935  143.9708  164.0210 C.3     1  UNL1        0.0188
     12 C         138.1784  142.5939  164.5439 C.3     1  UNL1        0.0724
     13 C         141.6083  141.5993  166.3762 C.3     1  UNL1        0.0991
     14 C         142.8404  141.2191  165.6097 C.ar    1  UNL1       -0.0061
     15 C         143.2666  139.7826  165.5395 C.ar    1  UNL1       -0.0029
     16 C         144.4986  139.4024  164.7730 C.ar    1  UNL1       -0.0003
     17 C         145.3045  140.4588  164.0767 C.ar    1  UNL1       -0.0000
     18 C         144.8783  141.8952  164.1469 C.ar    1  UNL1       -0.0003
     19 C         143.6462  142.2754  164.9134 C.ar    1  UNL1       -0.0029
     20 N         141.7302  142.1547  167.7643 N.3     1  UNL1       -0.2690
     21 C         142.9741  142.1684  168.6024 C.3     1  UNL1        0.0724
     22 C         142.6422  142.8160  169.9140 C.3     1  UNL1        0.0188
     23 C         141.1931  143.2026  169.8866 C.3     1  UNL1        0.0188
     24 C         140.6295  142.7938  168.5580 C.3     1  UNL1        0.0724
@<TRIPOS>BOND
     1     2     3   ar
     2     3     4   ar
     3     4     5   ar
     4     5     1    1
     5     1    13    1
     6    13    14    1
     7    14    15   ar
     8    15    16   ar
     9    16    17   ar
    10    17    18   ar
    11    18    19   ar
    12    13    20    1
    13    20    21    1
    14    21    22    1
    15    22    23    1
    16    23    24    1
    17     1     8    1
    18     8     9    1
    19     9    10    1
    20    10    11    1
    21    11    12    1
    22     5     6   ar
    23     6     7   ar
    24     7     2   ar
    25    19    14   ar
    26    24    20    1
    27    12     8    1
@<TRIPOS>MOLECULE
*****
 24 27 0 0 0
SMALL
GASTEIGER

@<TRIPOS>ATOM
      1 C         141.6940  141.7302  166.2848 C.3     1  UNL1        0.0991
      2 C         145.4438  140.8690  163.9507 C.ar    1  UNL1       -0.0000
      3 C         144.9840  142.2847  164.1357 C.ar    1  UNL1       -0.0003
      4 C         143.7341  142.5718  164.9137 C.ar    1  UNL1       -0.0029
      5 C         142.9439  141.4431  165.5068 C.ar    1  UNL1       -0.0061
      6 C         143.4038  140.0274  165.3218 C.ar    1  UNL1       -0.0029
      7 C         144.6537  139.7403  164.5438 C.ar    1  UNL1       -0.0003
      8 N         141.7871  142.2206  167.6993 N.3     1  UNL1       -0.2690
      9 C         140.6643  142.8017  168.5067 C.3     1  UNL1        0.0724
     10 C         141.2024  143.1563  169.8611 C.3     1  UNL1        0.0188
     11 C         142.6579  142.7944  169.8910 C.3     1  UNL1        0.0188
     12 C         143.0192  142.2161  168.5548 C.3     1  UNL1        0.0724
     13 C         140.3511  141.5268  165.6484 C.3     1  UNL1        0.0991
     14 C         139.7222  140.1650  165.6428 C.ar    1  UNL1       -0.0061
     15 C         140.0448  139.1944  164.5456 C.ar    1  UNL1       -0.0029
     16 C         139.4160  137.8326  164.5401 C.ar    1  UNL1       -0.0003
     17 C         138.4645  137.4414  165.6318 C.ar    1  UNL1       -0.0000
     18 C         138.1419  138.4121  166.7289 C.ar    1  UNL1       -0.0003
     19 C         138.7708  139.7738  166.7345 C.ar    1  UNL1       -0.0029
     20 N         139.6370  142.6853  165.0174 N.3     1  UNL1       -0.2690
     21 C         138.2297  142.6767  164.4982 C.3     1  UNL1        0.0724
     22 C         137.9278  144.0418  163.9548 C.3     1  UNL1        0.0188
     23 C         139.1484  144.8941  164.1382 C.3     1  UNL1        0.0188
     24 C         140.2047  144.0557  164.7949 C.3     1  UNL1        0.0724
@<TRIPOS>BOND
     1     2     3   ar
     2     3     4   ar
     3     4     5   ar
     4     5     1    1
     5     1    13    1
     6    13    14    1
     7    14    15   ar
     8    15    16   ar
     9    16    17   ar
    10    17    18   ar
    11    18    19   ar
    12    13    20    1
    13    20    21    1
    14    21    22    1
    15    22    23    1
    16    23    24    1
    17     1     8    1
    18     8     9    1
    19     9    10    1
    20    10    11    1
    21    11    12    1
    22     5     6   ar
    23     6     7   ar
    24     7     2   ar
    25    19    14   ar
    26    24    20    1
    27    12     8    1
@<TRIPOS>MOLECULE
*****
 24 27 0 0 0
SMALL
GASTEIGER

@<TRIPOS>ATOM
      1 C         141.7383  141.3597  166.1502 C.3     1  UNL1        0.0991
      2 C         142.0628  143.1855  170.2503 C.ar    1  UNL1       -0.0000
      3 C         140.7658  143.2529  169.4998 C.ar    1  UNL1       -0.0003
      4 C         140.6577  142.6443  168.1331 C.ar    1  UNL1       -0.0029
      5 C         141.8465  141.9683  167.5169 C.ar    1  UNL1       -0.0061
      6 C         143.1434  141.9009  168.2674 C.ar    1  UNL1       -0.0029
      7 C         143.2516  142.5095  169.6341 C.ar    1  UNL1       -0.0003
      8 N         142.9725  140.8915  165.4378 N.3     1  UNL1       -0.2690
      9 C         143.9312  141.7561  164.6739 C.3     1  UNL1        0.0724
     10 C         145.0160  140.8755  164.1283 C.3     1  UNL1        0.0188
     11 C         144.7277  139.4665  164.5549 C.3     1  UNL1        0.0188
     12 C         143.4648  139.4765  165.3643 C.3     1  UNL1        0.0724
     13 C         140.3959  141.2194  165.4958 C.3     1  UNL1        0.0991
     14 C         139.7974  142.3787  164.7556 C.ar    1  UNL1       -0.0061
     15 C         138.3818  142.3050  164.2649 C.ar    1  UNL1       -0.0029
     16 C         137.7834  143.4643  163.5247 C.ar    1  UNL1       -0.0003
     17 C         138.6005  144.6973  163.2752 C.ar    1  UNL1       -0.0000
     18 C         140.0161  144.7709  163.7659 C.ar    1  UNL1       -0.0003
     19 C         140.6145  143.6116  164.5061 C.ar    1  UNL1       -0.0029
     20 N         139.6519  139.9196  165.5816 N.3     1  UNL1       -0.2690
     21 C         138.6541  139.5428  166.6362 C.3     1  UNL1        0.0724
     22 C         138.1607  138.1589  166.3342 C.3     1  UNL1        0.0188
     23 C         138.8535  137.6804  165.0928 C.3     1  UNL1        0.0188
     24 C         139.7752  138.7686  164.6277 C.3     1  UNL1        0.0724
@<TRIPOS>BOND
     1     2     3   ar
     2     3     4   ar
     3     4     5   ar
     4     5     1    1
     5     1    13    1
     6    13    14    1
     7    14    15   ar
     8    15    16   ar
     9    16    17   ar
    10    17    18   ar
    11    18    19   ar
    12    13    20    1
    13    20    21    1
    14    21    22    1
    15    22    23    1
    16    23    24    1
    17     1     8    1
    18     8     9    1
    19     9    10    1
    20    10    11    1
    21    11    12    1
    22     5     6   ar
    23     6     7   ar
    24     7     2   ar
    25    19    14   ar
    26    24    20    1
    27    12     8    1
@<TRIPOS>MOLECULE
*****
 24 27 0 0 0
SMALL
GASTEIGER

@<TRIPOS>ATOM
      1 C         141.4936  140.7657  166.5402 C.3     1  UNL1        0.0991
      2 C         138.2693  137.7010  165.8610 C.ar    1  UNL1       -0.0000
      3 C         138.0727  138.7829  166.8811 C.ar    1  UNL1       -0.0003
      4 C         139.1475  139.8045  167.1075 C.ar    1  UNL1       -0.0029
      5 C         140.4189  139.7441  166.3138 C.ar    1  UNL1       -0.0061
      6 C         140.6154  138.6622  165.2937 C.ar    1  UNL1       -0.0029
      7 C         139.5407  137.6406  165.0673 C.ar    1  UNL1       -0.0003
      8 N         142.1594  140.8695  167.8804 N.3     1  UNL1       -0.2690
      9 C         142.2335  139.7853  168.9144 C.3     1  UNL1        0.0724
     10 C         142.9878  140.3214  170.0949 C.3     1  UNL1        0.0188
     11 C         143.3799  141.7370  169.7905 C.3     1  UNL1        0.0188
     12 C         142.8679  142.0757  168.4218 C.3     1  UNL1        0.0724
     13 C         141.9026  141.6835  165.4266 C.3     1  UNL1        0.0991
     14 C         140.9533  142.7356  164.9347 C.ar    1  UNL1       -0.0061
     15 C         140.0059  143.3971  165.8913 C.ar    1  UNL1       -0.0029
     16 C         139.0565  144.4492  165.3995 C.ar    1  UNL1       -0.0003
     17 C         139.0546  144.8398  163.9511 C.ar    1  UNL1       -0.0000
     18 C         140.0020  144.1782  162.9947 C.ar    1  UNL1       -0.0003
     19 C         140.9513  143.1261  163.4865 C.ar    1  UNL1       -0.0029
     20 N         143.2610  141.5492  164.8046 N.3     1  UNL1       -0.2690
     21 C         144.3239  142.6071  164.7710 C.3     1  UNL1        0.0724
     22 C         145.5148  142.0452  164.0527 C.3     1  UNL1        0.0188
     23 C         145.1879  140.6398  163.6423 C.3     1  UNL1        0.0188
     24 C         143.7951  140.3334  164.1070 C.3     1  UNL1        0.0724
@<TRIPOS>BOND
     1     2     3   ar
     2     3     4   ar
     3     4     5   ar
     4     5     1    1
     5     1    13    1
     6    13    14    1
     7    14    15   ar
     8    15    16   ar
     9    16    17   ar
    10    17    18   ar
    11    18    19   ar
    12    13    20    1
    13    20    21    1
    14    21    22    1
    15    22    23    1
    16    23    24    1
    17     1     8    1
    18     8     9    1
    19     9    10    1
    20    10    11    1
    21    11    12    1
    22     5     6   ar
    23     6     7   ar
    24     7     2   ar
    25    19    14   ar
    26    24    20    1
    27    12     8    1
@<TRIPOS>MOLECULE
*****
 24 27 0 0 0
SMALL
GASTEIGER

@<TRIPOS>ATOM
      1 C         140.9089  141.6704  166.5006 C.3     1  UNL1        0.0991
      2 C         142.5118  143.1542  170.4350 C.ar    1  UNL1       -0.0000
      3 C         141.1377  143.5543  169.9861 C.ar    1  UNL1       -0.0003
      4 C         140.6034  143.0597  168.6747 C.ar    1  UNL1       -0.0029
      5 C         141.4432  142.1650  167.8121 C.ar    1  UNL1       -0.0061
      6 C         142.8174  141.7648  168.2610 C.ar    1  UNL1       -0.0029
      7 C         143.3517  142.2594  169.5724 C.ar    1  UNL1       -0.0003
      8 N         139.8286  140.6301  166.4753 N.3     1  UNL1       -0.2690
      9 C         139.0758  140.1701  165.2621 C.3     1  UNL1        0.0724
     10 C         138.0932  139.1229  165.6956 C.3     1  UNL1        0.0188
     11 C         138.2387  138.9356  167.1768 C.3     1  UNL1        0.0188
     12 C         139.3112  139.8672  167.6587 C.3     1  UNL1        0.0724
     13 C         141.4549  142.2160  165.2146 C.3     1  UNL1        0.0991
     14 C         142.8225  141.8120  164.7490 C.ar    1  UNL1       -0.0061
     15 C         143.9187  142.8326  164.6671 C.ar    1  UNL1       -0.0029
     16 C         145.2862  142.4286  164.2016 C.ar    1  UNL1       -0.0003
     17 C         145.5575  141.0041  163.8180 C.ar    1  UNL1       -0.0000
     18 C         144.4612  139.9835  163.8999 C.ar    1  UNL1       -0.0003
     19 C         143.0937  140.3875  164.3654 C.ar    1  UNL1       -0.0029
     20 N         140.6335  143.1657  164.3939 N.3     1  UNL1       -0.2690
     21 C         140.6539  143.2840  162.8988 C.3     1  UNL1        0.0724
     22 C         139.6804  144.3552  162.5052 C.3     1  UNL1        0.0188
     23 C         139.0583  144.8989  163.7572 C.3     1  UNL1        0.0188
     24 C         139.6474  144.1638  164.9245 C.3     1  UNL1        0.0724
@<TRIPOS>BOND
     1     2     3   ar
     2     3     4   ar
     3     4     5   ar
     4     5     1    1
     5     1    13    1
     6    13    14    1
     7    14    15   ar
     8    15    16   ar
     9    16    17   ar
    10    17    18   ar
    11    18    19   ar
    12    13    20    1
    13    20    21    1
    14    21    22    1
    15    22    23    1
    16    23    24    1
    17     1     8    1
    18     8     9    1
    19     9    10    1
    20    10    11    1
    21    11    12    1
    22     5     6   ar
    23     6     7   ar
    24     7     2   ar
    25    19    14   ar
    26    24    20    1
    27    12     8    1
