@<TRIPOS>MOLECULE
*****
 36 39 0 0 0
SMALL
GASTEIGER

@<TRIPOS>ATOM
      1 C         144.2289  141.3357  160.7677 C.3     1  UNL1        0.2722
      2 C         143.7565  140.1492  159.9808 C.2     1  UNL1        0.2701
      3 O         144.2244  138.7719  160.3470 O.2     1  UNL1       -0.2707
      4 N         142.8163  140.3401  158.8277 N.am    1  UNL1       -0.2663
      5 H         142.5093  141.2441  158.5874 H       1  UNL1        0.1564
      6 C         142.3440  139.1537  158.0408 C.ar    1  UNL1        0.1344
      7 C         140.8857  138.8032  158.0149 C.ar    1  UNL1        0.0368
      8 C         140.4133  137.6168  157.2280 C.ar    1  UNL1        0.0341
      9 C         141.3993  136.7807  156.4670 C.ar    1  UNL1        0.1593
     10 F         140.9269  135.5943  155.6801 F       1  UNL1       -0.2025
     11 C         142.8575  137.1311  156.4930 C.ar    1  UNL1        0.1298
     12 N         143.3299  138.3176  157.2799 N.ar    1  UNL1       -0.2267
     13 C         143.8177  142.7190  160.3585 C.3     1  UNL1        0.1951
     14 O         142.3865  143.1469  160.4939 O.3     1  UNL1       -0.3493
     15 C         140.9947  142.3427  162.5351 C.3     1  UNL1        0.0347
     16 C         141.8060  143.4041  161.8530 C.3     1  UNL1        0.1446
     17 C         142.0368  144.7226  162.5299 C.3     1  UNL1        0.1666
     18 O         143.4033  145.3411  162.5211 O.3     1  UNL1       -0.3795
     19 H         144.0125  144.7867  163.0335 H       1  UNL1        0.2105
     20 O         145.1124  141.1389  161.9638 O.3     1  UNL1       -0.4517
     21 C         144.6352  141.5516  163.3247 C.ar    1  UNL1        0.2312
     22 N         144.9133  142.9367  163.8289 N.ar    1  UNL1       -0.1892
     23 C         144.4361  143.3493  165.1897 C.ar    1  UNL1        0.2029
     24 N         143.6809  142.3769  166.0464 N.ar    1  UNL1       -0.2045
     25 C         143.4028  140.9918  165.5423 C.ar    1  UNL1        0.1732
     26 C         143.8800  140.5792  164.1814 C.ar    1  UNL1        0.1099
     27 C         143.4600  139.1571  163.9544 C.ar    1  UNL1        0.1283
     28 N         142.7233  138.6909  165.1751 N.ar    1  UNL1       -0.1606
     29 N         142.6879  139.8248  166.1564 N.ar    1  UNL1       -0.1936
     30 C         142.0498  139.7967  167.5136 C.ar    1  UNL1        0.1759
     31 N         142.8431  139.3520  168.7064 N.ar    1  UNL1       -0.2242
     32 C         142.2049  139.3238  170.0635 C.ar    1  UNL1        0.1006
     33 C         140.7734  139.7405  170.2280 C.ar    1  UNL1        0.0217
     34 C         139.9800  140.1853  169.0352 C.ar    1  UNL1        0.0161
     35 C         140.6182  140.2134  167.6780 C.ar    1  UNL1        0.0935
     36 CL        139.8248  140.6581  166.4852 Cl      1  UNL1       -0.0790
@<TRIPOS>BOND
     1    16    15    1
     2    16    17    1
     3    17    18    1
     4    16    14    1
     5    14    13    1
     6     1    13    1
     7     1    20    1
     8    20    21    1
     9    21    22   ar
    10    22    23   ar
    11    23    24   ar
    12    24    25   ar
    13    25    26   ar
    14    26    27   ar
    15    27    28   ar
    16    28    29   ar
    17    29    30    1
    18    30    31   ar
    19    31    32   ar
    20    32    33   ar
    21    33    34   ar
    22    34    35   ar
    23    35    36    1
    24     1     2    1
    25     2     3    2
    26     2     4   am
    27     4     6    1
    28     6     7   ar
    29     7     8   ar
    30     8     9   ar
    31     9    10    1
    32     9    11   ar
    33    11    12   ar
    34    26    21   ar
    35    35    30   ar
    36    12     6   ar
    37    29    25   ar
    38    18    19    1
    39     4     5    1
@<TRIPOS>MOLECULE
*****
 36 39 0 0 0
SMALL
GASTEIGER

@<TRIPOS>ATOM
      1 C         137.7194  141.0816  161.6000 C.3     1  UNL1        0.2722
      2 C         138.7618  141.8472  160.8400 C.2     1  UNL1        0.2701
      3 O         140.2056  141.7401  161.2320 O.2     1  UNL1       -0.2707
      4 N         138.3601  142.7200  159.6880 N.am    1  UNL1       -0.2663
      5 H         137.4124  142.7903  159.4308 H       1  UNL1        0.1564
      6 C         139.4023  143.4855  158.9281 C.ar    1  UNL1        0.1344
      7 C         139.9544  142.9324  157.6477 C.ar    1  UNL1        0.0368
      8 C         140.9967  143.6980  156.8878 C.ar    1  UNL1        0.0341
      9 C         141.4868  145.0168  157.4081 C.ar    1  UNL1        0.1593
     10 F         142.5290  145.7823  156.6481 F       1  UNL1       -0.2025
     11 C         140.9347  145.5699  158.6884 C.ar    1  UNL1        0.1298
     12 N         139.8924  144.8042  159.4484 N.ar    1  UNL1       -0.2267
     13 C         137.3394  139.6975  161.1647 C.3     1  UNL1        0.1951
     14 O         137.8887  138.5055  161.8909 O.3     1  UNL1       -0.3493
     15 C         140.0097  138.3134  160.4026 C.3     1  UNL1        0.0347
     16 C         139.3308  138.1265  161.7271 C.3     1  UNL1        0.1446
     17 C         140.0941  137.5608  162.8879 C.3     1  UNL1        0.1666
     18 O         141.3817  136.8281  162.6532 O.3     1  UNL1       -0.3795
     19 H         141.2038  136.0108  162.1620 H       1  UNL1        0.2105
     20 O         137.0573  141.7003  162.7953 O.3     1  UNL1       -0.4517
     21 C         137.8847  142.3996  163.8329 C.ar    1  UNL1        0.2312
     22 N         137.9628  143.8975  163.8453 N.ar    1  UNL1       -0.1892
     23 C         138.7901  144.5968  164.8828 C.ar    1  UNL1        0.2029
     24 N         139.5393  143.7982  165.9079 N.ar    1  UNL1       -0.2045
     25 C         139.4612  142.3003  165.8955 C.ar    1  UNL1        0.1732
     26 C         138.6339  141.6010  164.8580 C.ar    1  UNL1        0.1099
     27 C         138.7467  140.1238  165.0934 C.ar    1  UNL1        0.1283
     28 N         139.6438  139.9102  166.2764 N.ar    1  UNL1       -0.1606
     29 N         140.0854  141.2554  166.7722 N.ar    1  UNL1       -0.1936
     30 C         140.9920  141.5107  167.9396 C.ar    1  UNL1        0.1759
     31 N         142.3613  142.0806  167.7153 N.ar    1  UNL1       -0.2242
     32 C         143.2678  142.3359  168.8827 C.ar    1  UNL1        0.1006
     33 C         142.8052  142.0214  170.2745 C.ar    1  UNL1        0.0217
     34 C         141.4359  141.4516  170.4988 C.ar    1  UNL1        0.0161
     35 C         140.5293  141.1962  169.3313 C.ar    1  UNL1        0.0935
     36 CL        139.1601  140.6263  169.5557 Cl      1  UNL1       -0.0790
@<TRIPOS>BOND
     1    16    15    1
     2    16    17    1
     3    17    18    1
     4    16    14    1
     5    14    13    1
     6     1    13    1
     7     1    20    1
     8    20    21    1
     9    21    22   ar
    10    22    23   ar
    11    23    24   ar
    12    24    25   ar
    13    25    26   ar
    14    26    27   ar
    15    27    28   ar
    16    28    29   ar
    17    29    30    1
    18    30    31   ar
    19    31    32   ar
    20    32    33   ar
    21    33    34   ar
    22    34    35   ar
    23    35    36    1
    24     1     2    1
    25     2     3    2
    26     2     4   am
    27     4     6    1
    28     6     7   ar
    29     7     8   ar
    30     8     9   ar
    31     9    10    1
    32     9    11   ar
    33    11    12   ar
    34    26    21   ar
    35    35    30   ar
    36    12     6   ar
    37    29    25   ar
    38    18    19    1
    39     4     5    1
@<TRIPOS>MOLECULE
*****
 36 39 0 0 0
SMALL
GASTEIGER

@<TRIPOS>ATOM
      1 C         142.3550  139.4791  166.8295 C.3     1  UNL1        0.2722
      2 C         141.2463  140.2601  166.1884 C.2     1  UNL1        0.2701
      3 O         139.8773  139.6589  166.0687 O.2     1  UNL1       -0.2707
      4 N         141.5066  141.6422  165.6670 N.am    1  UNL1       -0.2663
      5 H         142.4052  142.0368  165.7455 H       1  UNL1        0.1564
      6 C         140.3980  142.4232  165.0259 C.ar    1  UNL1        0.1344
      7 C         139.7757  143.5778  165.7537 C.ar    1  UNL1        0.0368
      8 C         138.6671  144.3588  165.1127 C.ar    1  UNL1        0.0341
      9 C         138.1806  143.9851  163.7438 C.ar    1  UNL1        0.1593
     10 F         137.0720  144.7660  163.1027 F       1  UNL1       -0.2025
     11 C         138.8029  142.8305  163.0160 C.ar    1  UNL1        0.1298
     12 N         139.9116  142.0495  163.6571 N.ar    1  UNL1       -0.2267
     13 C         142.5368  139.5185  168.3178 C.3     1  UNL1        0.1951
     14 O         142.4943  140.8302  169.0442 O.3     1  UNL1       -0.3493
     15 C         139.9560  140.6787  169.5770 C.3     1  UNL1        0.0347
     16 C         141.3319  141.1574  169.9341 C.3     1  UNL1        0.1446
     17 C         141.5455  141.9634  171.1810 C.3     1  UNL1        0.1666
     18 O         140.4184  142.1560  172.1518 O.3     1  UNL1       -0.3795
     19 H         139.7194  142.6838  171.7350 H       1  UNL1        0.2105
     20 O         143.2819  138.6589  165.9821 O.3     1  UNL1       -0.4517
     21 C         143.5409  139.0516  164.5577 C.ar    1  UNL1        0.2312
     22 N         144.6501  140.0078  164.2332 N.ar    1  UNL1       -0.1892
     23 C         144.9091  140.4004  162.8089 C.ar    1  UNL1        0.2029
     24 N         144.0590  139.8368  161.7091 N.ar    1  UNL1       -0.2045
     25 C         142.9498  138.8806  162.0336 C.ar    1  UNL1        0.1732
     26 C         142.6908  138.4880  163.4579 C.ar    1  UNL1        0.1099
     27 C         141.5348  137.5321  163.4723 C.ar    1  UNL1        0.1283
     28 N         141.0795  137.3340  162.0569 N.ar    1  UNL1       -0.1606
     29 N         141.9540  138.1675  161.1677 N.ar    1  UNL1       -0.1936
     30 C         141.8508  138.2698  159.6748 C.ar    1  UNL1        0.1759
     31 N         142.9535  137.7373  158.8085 N.ar    1  UNL1       -0.2242
     32 C         142.8503  137.8396  157.3156 C.ar    1  UNL1        0.1006
     33 C         141.6443  138.4744  156.6889 C.ar    1  UNL1        0.0217
     34 C         140.5416  139.0069  157.5552 C.ar    1  UNL1        0.0161
     35 C         140.6448  138.9046  159.0481 C.ar    1  UNL1        0.0935
     36 CL        139.5421  139.4370  159.9143 Cl      1  UNL1       -0.0790
@<TRIPOS>BOND
     1    16    15    1
     2    16    17    1
     3    17    18    1
     4    16    14    1
     5    14    13    1
     6     1    13    1
     7     1    20    1
     8    20    21    1
     9    21    22   ar
    10    22    23   ar
    11    23    24   ar
    12    24    25   ar
    13    25    26   ar
    14    26    27   ar
    15    27    28   ar
    16    28    29   ar
    17    29    30    1
    18    30    31   ar
    19    31    32   ar
    20    32    33   ar
    21    33    34   ar
    22    34    35   ar
    23    35    36    1
    24     1     2    1
    25     2     3    2
    26     2     4   am
    27     4     6    1
    28     6     7   ar
    29     7     8   ar
    30     8     9   ar
    31     9    10    1
    32     9    11   ar
    33    11    12   ar
    34    26    21   ar
    35    35    30   ar
    36    12     6   ar
    37    29    25   ar
    38    18    19    1
    39     4     5    1
@<TRIPOS>MOLECULE
*****
 36 39 0 0 0
SMALL
GASTEIGER

@<TRIPOS>ATOM
      1 C         138.8529  142.3279  161.4966 C.3     1  UNL1        0.2722
      2 C         139.3696  142.8812  160.2016 C.2     1  UNL1        0.2701
      3 O         138.4424  143.0484  159.0344 O.2     1  UNL1       -0.2707
      4 N         140.8134  143.2672  160.0738 N.am    1  UNL1       -0.2663
      5 H         141.4219  143.1575  160.8399 H       1  UNL1        0.1564
      6 C         141.3301  143.8205  158.7789 C.ar    1  UNL1        0.1344
      7 C         141.5233  142.9136  157.5998 C.ar    1  UNL1        0.0368
      8 C         142.0400  143.4669  156.3048 C.ar    1  UNL1        0.0341
      9 C         142.3634  144.9271  156.1889 C.ar    1  UNL1        0.1593
     10 F         142.8801  145.4803  154.8940 F       1  UNL1       -0.2025
     11 C         142.1702  145.8339  157.3680 C.ar    1  UNL1        0.1298
     12 N         141.6535  145.2806  158.6630 N.ar    1  UNL1       -0.2267
     13 C         137.8350  143.0953  162.2871 C.3     1  UNL1        0.1951
     14 O         138.0589  144.5475  162.5889 O.3     1  UNL1       -0.3493
     15 C         139.0462  144.8344  164.9749 C.3     1  UNL1        0.0347
     16 C         139.1868  144.9617  163.4869 C.3     1  UNL1        0.1446
     17 C         140.4551  145.5031  162.8970 C.3     1  UNL1        0.1666
     18 O         140.4745  145.9894  161.4782 O.3     1  UNL1       -0.3795
     19 H         140.3224  145.2425  160.8783 H       1  UNL1        0.2105
     20 O         139.3543  141.0072  162.0011 O.3     1  UNL1       -0.4517
     21 C         139.2984  140.6942  163.4671 C.ar    1  UNL1        0.2312
     22 N         138.2071  139.8173  164.0057 N.ar    1  UNL1       -0.1892
     23 C         138.1513  139.5043  165.4715 C.ar    1  UNL1        0.2029
     24 N         139.1868  140.0681  166.3988 N.ar    1  UNL1       -0.2045
     25 C         140.2781  140.9449  165.8602 C.ar    1  UNL1        0.1732
     26 C         140.3339  141.2580  164.3944 C.ar    1  UNL1        0.1099
     27 C         141.5190  142.1458  164.1547 C.ar    1  UNL1        0.1283
     28 N         142.1956  142.3814  165.4726 N.ar    1  UNL1       -0.1606
     29 N         141.4287  141.6393  166.5266 N.ar    1  UNL1       -0.1936
     30 C         141.7550  141.5986  167.9901 C.ar    1  UNL1        0.1759
     31 N         141.3830  142.7520  168.8739 N.ar    1  UNL1       -0.2242
     32 C         141.7093  142.7113  170.3374 C.ar    1  UNL1        0.1006
     33 C         142.4077  141.5171  170.9172 C.ar    1  UNL1        0.0217
     34 C         142.7797  140.3636  170.0334 C.ar    1  UNL1        0.0161
     35 C         142.4533  140.4043  168.5699 C.ar    1  UNL1        0.0935
     36 CL        142.8254  139.2508  167.6862 Cl      1  UNL1       -0.0790
@<TRIPOS>BOND
     1    16    15    1
     2    16    17    1
     3    17    18    1
     4    16    14    1
     5    14    13    1
     6     1    13    1
     7     1    20    1
     8    20    21    1
     9    21    22   ar
    10    22    23   ar
    11    23    24   ar
    12    24    25   ar
    13    25    26   ar
    14    26    27   ar
    15    27    28   ar
    16    28    29   ar
    17    29    30    1
    18    30    31   ar
    19    31    32   ar
    20    32    33   ar
    21    33    34   ar
    22    34    35   ar
    23    35    36    1
    24     1     2    1
    25     2     3    2
    26     2     4   am
    27     4     6    1
    28     6     7   ar
    29     7     8   ar
    30     8     9   ar
    31     9    10    1
    32     9    11   ar
    33    11    12   ar
    34    26    21   ar
    35    35    30   ar
    36    12     6   ar
    37    29    25   ar
    38    18    19    1
    39     4     5    1
@<TRIPOS>MOLECULE
*****
 36 39 0 0 0
SMALL
GASTEIGER

@<TRIPOS>ATOM
      1 C         141.0476  144.3021  160.0655 C.3     1  UNL1        0.2722
      2 C         141.0714  145.1509  158.8289 C.2     1  UNL1        0.2701
      3 O         142.2487  146.0376  158.5505 O.2     1  UNL1       -0.2707
      4 N         139.9180  145.1128  157.8707 N.am    1  UNL1       -0.2663
      5 H         139.1452  144.5308  158.0535 H       1  UNL1        0.1564
      6 C         139.9418  145.9615  156.6342 C.ar    1  UNL1        0.1344
      7 C         140.7400  145.5263  155.4411 C.ar    1  UNL1        0.0368
      8 C         140.7638  146.3749  154.2045 C.ar    1  UNL1        0.0341
      9 C         139.9894  147.6589  154.1610 C.ar    1  UNL1        0.1593
     10 F         140.0132  148.5076  152.9244 F       1  UNL1       -0.2025
     11 C         139.1912  148.0941  155.3541 C.ar    1  UNL1        0.1298
     12 N         139.1674  147.2453  156.5907 N.ar    1  UNL1       -0.2267
     13 C         140.8880  142.8150  159.9515 C.3     1  UNL1        0.1951
     14 O         139.5205  142.2011  160.0059 O.3     1  UNL1       -0.3493
     15 C         140.2560  140.7264  162.0146 C.3     1  UNL1        0.0347
     16 C         139.1870  141.2068  161.0784 C.3     1  UNL1        0.1446
     17 C         137.7844  140.6929  161.2148 C.3     1  UNL1        0.1666
     18 O         136.9271  141.1471  162.3588 O.3     1  UNL1       -0.3795
     19 H         137.3012  140.8213  163.1924 H       1  UNL1        0.2105
     20 O         141.1832  144.9406  161.4161 O.3     1  UNL1       -0.4517
     21 C         140.3051  144.4953  162.5478 C.ar    1  UNL1        0.2312
     22 N         138.8215  144.7030  162.4724 N.ar    1  UNL1       -0.1892
     23 C         137.9435  144.2578  163.6041 C.ar    1  UNL1        0.2029
     24 N         138.5490  143.6047  164.8111 N.ar    1  UNL1       -0.2045
     25 C         140.0326  143.3970  164.8864 C.ar    1  UNL1        0.1732
     26 C         140.9107  143.8422  163.7548 C.ar    1  UNL1        0.1099
     27 C         142.3293  143.5072  164.1091 C.ar    1  UNL1        0.1283
     28 N         142.3279  142.8548  165.4598 N.ar    1  UNL1       -0.1606
     29 N         140.9085  142.7867  165.9402 N.ar    1  UNL1       -0.1936
     30 C         140.4461  142.2097  167.2453 C.ar    1  UNL1        0.1759
     31 N         140.4334  143.0618  168.4796 N.ar    1  UNL1       -0.2242
     32 C         139.9710  142.4847  169.7847 C.ar    1  UNL1        0.1006
     33 C         139.5213  141.0554  169.8554 C.ar    1  UNL1        0.0217
     34 C         139.5341  140.2033  168.6211 C.ar    1  UNL1        0.0161
     35 C         139.9964  140.7804  167.3160 C.ar    1  UNL1        0.0935
     36 CL        140.0091  139.9282  166.0817 Cl      1  UNL1       -0.0790
@<TRIPOS>BOND
     1    16    15    1
     2    16    17    1
     3    17    18    1
     4    16    14    1
     5    14    13    1
     6     1    13    1
     7     1    20    1
     8    20    21    1
     9    21    22   ar
    10    22    23   ar
    11    23    24   ar
    12    24    25   ar
    13    25    26   ar
    14    26    27   ar
    15    27    28   ar
    16    28    29   ar
    17    29    30    1
    18    30    31   ar
    19    31    32   ar
    20    32    33   ar
    21    33    34   ar
    22    34    35   ar
    23    35    36    1
    24     1     2    1
    25     2     3    2
    26     2     4   am
    27     4     6    1
    28     6     7   ar
    29     7     8   ar
    30     8     9   ar
    31     9    10    1
    32     9    11   ar
    33    11    12   ar
    34    26    21   ar
    35    35    30   ar
    36    12     6   ar
    37    29    25   ar
    38    18    19    1
    39     4     5    1
@<TRIPOS>MOLECULE
*****
 36 39 0 0 0
SMALL
GASTEIGER

@<TRIPOS>ATOM
      1 C         140.7296  138.2618  164.3089 C.3     1  UNL1        0.2722
      2 C         140.8353  138.9846  165.6191 C.2     1  UNL1        0.2701
      3 O         142.1161  138.9409  166.3985 O.2     1  UNL1       -0.2707
      4 N         139.6602  139.7511  166.1497 N.am    1  UNL1       -0.2663
      5 H         138.8195  139.7798  165.6381 H       1  UNL1        0.1564
      6 C         139.7659  140.4739  167.4598 C.ar    1  UNL1        0.1344
      7 C         140.4030  141.8306  167.5186 C.ar    1  UNL1        0.0368
      8 C         140.5087  142.5534  168.8287 C.ar    1  UNL1        0.0341
      9 C         139.9772  141.9195  170.0800 C.ar    1  UNL1        0.1593
     10 F         140.0829  142.6423  171.3901 F       1  UNL1       -0.2025
     11 C         139.3400  140.5628  170.0212 C.ar    1  UNL1        0.1298
     12 N         139.2344  139.8400  168.7110 N.ar    1  UNL1       -0.2267
     13 C         141.9672  137.7531  163.6310 C.3     1  UNL1        0.1951
     14 O         142.4448  138.3948  162.3621 O.3     1  UNL1       -0.3493
     15 C         142.0914  140.7705  161.3715 C.3     1  UNL1        0.0347
     16 C         142.7804  139.8567  162.3411 C.3     1  UNL1        0.1446
     17 C         143.8051  140.4046  163.2896 C.3     1  UNL1        0.1666
     18 O         145.1275  139.7142  163.4459 O.3     1  UNL1       -0.3795
     19 H         144.9907  138.8395  163.8423 H       1  UNL1        0.2105
     20 O         139.3862  138.0476  163.6768 O.3     1  UNL1       -0.4517
     21 C         138.7276  139.1622  162.9192 C.ar    1  UNL1        0.2312
     22 N         138.0129  140.2530  163.6604 N.ar    1  UNL1       -0.1892
     23 C         137.3543  141.3675  162.9027 C.ar    1  UNL1        0.2029
     24 N         137.4104  141.3913  161.4040 N.ar    1  UNL1       -0.2045
     25 C         138.1251  140.3005  160.6628 C.ar    1  UNL1        0.1732
     26 C         138.7837  139.1860  161.4204 C.ar    1  UNL1        0.1099
     27 C         139.4105  138.2556  160.4246 C.ar    1  UNL1        0.1283
     28 N         139.1393  138.7952  159.0516 N.ar    1  UNL1       -0.1606
     29 N         138.3449  140.0590  159.1988 N.ar    1  UNL1       -0.1936
     30 C         137.8560  140.9286  158.0787 C.ar    1  UNL1        0.1759
     31 N         136.6803  140.4978  157.2529 N.ar    1  UNL1       -0.2242
     32 C         136.1914  141.3674  156.1328 C.ar    1  UNL1        0.1006
     33 C         136.8783  142.6680  155.8384 C.ar    1  UNL1        0.0217
     34 C         138.0541  143.0989  156.6641 C.ar    1  UNL1        0.0161
     35 C         138.5429  142.2292  157.7843 C.ar    1  UNL1        0.0935
     36 CL        139.7187  142.6602  158.6100 Cl      1  UNL1       -0.0790
@<TRIPOS>BOND
     1    16    15    1
     2    16    17    1
     3    17    18    1
     4    16    14    1
     5    14    13    1
     6     1    13    1
     7     1    20    1
     8    20    21    1
     9    21    22   ar
    10    22    23   ar
    11    23    24   ar
    12    24    25   ar
    13    25    26   ar
    14    26    27   ar
    15    27    28   ar
    16    28    29   ar
    17    29    30    1
    18    30    31   ar
    19    31    32   ar
    20    32    33   ar
    21    33    34   ar
    22    34    35   ar
    23    35    36    1
    24     1     2    1
    25     2     3    2
    26     2     4   am
    27     4     6    1
    28     6     7   ar
    29     7     8   ar
    30     8     9   ar
    31     9    10    1
    32     9    11   ar
    33    11    12   ar
    34    26    21   ar
    35    35    30   ar
    36    12     6   ar
    37    29    25   ar
    38    18    19    1
    39     4     5    1
@<TRIPOS>MOLECULE
*****
 36 39 0 0 0
SMALL
GASTEIGER

@<TRIPOS>ATOM
      1 C         137.9925  142.3277  164.3248 C.3     1  UNL1        0.2722
      2 C         138.7260  141.4422  165.2881 C.2     1  UNL1        0.2701
      3 O         138.3679  139.9894  165.3933 O.2     1  UNL1       -0.2707
      4 N         139.8177  142.0095  166.1462 N.am    1  UNL1       -0.2663
      5 H         140.0527  142.9631  166.0772 H       1  UNL1        0.1564
      6 C         140.5512  141.1241  167.1095 C.ar    1  UNL1        0.1344
      7 C         139.9909  140.8795  168.4792 C.ar    1  UNL1        0.0368
      8 C         140.7244  139.9940  169.4425 C.ar    1  UNL1        0.0341
      9 C         142.0184  139.3532  169.0360 C.ar    1  UNL1        0.1593
     10 F         142.7519  138.4678  169.9993 F       1  UNL1       -0.2025
     11 C         142.5787  139.5979  167.6663 C.ar    1  UNL1        0.1298
     12 N         141.8451  140.4834  166.7030 N.ar    1  UNL1       -0.2267
     13 C         138.0219  143.8167  164.5034 C.3     1  UNL1        0.1951
     14 O         139.3107  144.5065  164.8395 O.3     1  UNL1       -0.3493
     15 C         141.6899  145.0033  163.9214 C.3     1  UNL1        0.0347
     16 C         140.2007  145.0094  163.7417 C.3     1  UNL1        0.1446
     17 C         139.6016  145.5182  162.4642 C.3     1  UNL1        0.1666
     18 O         140.4738  146.1766  161.4368 O.3     1  UNL1       -0.3795
     19 H         140.8236  147.0077  161.7943 H       1  UNL1        0.2105
     20 O         137.2296  141.7241  163.1831 O.3     1  UNL1       -0.4517
     21 C         137.8625  141.6263  161.8266 C.ar    1  UNL1        0.2312
     22 N         137.9036  142.8279  160.9297 N.ar    1  UNL1       -0.1892
     23 C         138.5364  142.7301  159.5734 C.ar    1  UNL1        0.2029
     24 N         139.1282  141.4306  159.1138 N.ar    1  UNL1       -0.2045
     25 C         139.0871  140.2290  160.0106 C.ar    1  UNL1        0.1732
     26 C         138.4542  140.3268  161.3670 C.ar    1  UNL1        0.1099
     27 C         138.5610  138.9837  162.0263 C.ar    1  UNL1        0.1283
     28 N         139.2599  138.0558  161.0774 N.ar    1  UNL1       -0.1606
     29 N         139.5850  138.8254  159.8316 N.ar    1  UNL1       -0.1936
     30 C         140.2851  138.2862  158.6196 C.ar    1  UNL1        0.1759
     31 N         139.4864  137.7700  157.4596 N.ar    1  UNL1       -0.2242
     32 C         140.1866  137.2308  156.2476 C.ar    1  UNL1        0.1006
     33 C         141.6855  137.2077  156.1955 C.ar    1  UNL1        0.0217
     34 C         142.4842  137.7239  157.3554 C.ar    1  UNL1        0.0161
     35 C         141.7841  138.2632  158.5675 C.ar    1  UNL1        0.0935
     36 CL        142.5828  138.7793  159.7274 Cl      1  UNL1       -0.0790
@<TRIPOS>BOND
     1    16    15    1
     2    16    17    1
     3    17    18    1
     4    16    14    1
     5    14    13    1
     6     1    13    1
     7     1    20    1
     8    20    21    1
     9    21    22   ar
    10    22    23   ar
    11    23    24   ar
    12    24    25   ar
    13    25    26   ar
    14    26    27   ar
    15    27    28   ar
    16    28    29   ar
    17    29    30    1
    18    30    31   ar
    19    31    32   ar
    20    32    33   ar
    21    33    34   ar
    22    34    35   ar
    23    35    36    1
    24     1     2    1
    25     2     3    2
    26     2     4   am
    27     4     6    1
    28     6     7   ar
    29     7     8   ar
    30     8     9   ar
    31     9    10    1
    32     9    11   ar
    33    11    12   ar
    34    26    21   ar
    35    35    30   ar
    36    12     6   ar
    37    29    25   ar
    38    18    19    1
    39     4     5    1
@<TRIPOS>MOLECULE
*****
 36 39 0 0 0
SMALL
GASTEIGER

@<TRIPOS>ATOM
      1 C         141.8072  142.5880  162.4822 C.3     1  UNL1        0.2722
      2 C         140.8263  141.6425  163.1099 C.2     1  UNL1        0.2701
      3 O         139.4553  141.4848  162.5223 O.2     1  UNL1       -0.2707
      4 N         141.2166  140.8546  164.3252 N.am    1  UNL1       -0.2663
      5 H         142.1165  140.9581  164.7109 H       1  UNL1        0.1564
      6 C         140.2358  139.9091  164.9530 C.ar    1  UNL1        0.1344
      7 C         139.5235  140.2961  166.2151 C.ar    1  UNL1        0.0368
      8 C         138.5427  139.3506  166.8428 C.ar    1  UNL1        0.0341
      9 C         138.2742  138.0181  166.2084 C.ar    1  UNL1        0.1593
     10 F         137.2934  137.0726  166.8361 F       1  UNL1       -0.2025
     11 C         138.9865  137.6311  164.9463 C.ar    1  UNL1        0.1298
     12 N         139.9673  138.5767  164.3186 N.ar    1  UNL1       -0.2267
     13 C         141.5298  144.0621  162.4769 C.3     1  UNL1        0.1951
     14 O         140.9458  144.7197  163.6920 O.3     1  UNL1       -0.3493
     15 C         138.8420  144.8082  165.2138 C.3     1  UNL1        0.0347
     16 C         139.4574  144.8242  163.8460 C.3     1  UNL1        0.1446
     17 C         138.5844  144.9445  162.6322 C.3     1  UNL1        0.1666
     18 O         137.5863  143.8701  162.3167 O.3     1  UNL1       -0.3795
     19 H         138.0537  143.0483  162.0997 H       1  UNL1        0.2105
     20 O         143.0654  142.0593  161.8598 O.3     1  UNL1       -0.4517
     21 C         143.1118  140.6526  161.3409 C.ar    1  UNL1        0.2312
     22 N         143.3697  139.5140  162.2827 N.ar    1  UNL1       -0.1892
     23 C         143.4161  138.1074  161.7638 C.ar    1  UNL1        0.2029
     24 N         143.2046  137.8394  160.3031 N.ar    1  UNL1       -0.2045
     25 C         142.9467  138.9781  159.3614 C.ar    1  UNL1        0.1732
     26 C         142.9003  140.3847  159.8803 C.ar    1  UNL1        0.1099
     27 C         142.6282  141.2975  158.7215 C.ar    1  UNL1        0.1283
     28 N         142.5065  140.4550  157.4864 N.ar    1  UNL1       -0.1606
     29 N         142.7033  139.0215  157.8819 N.ar    1  UNL1       -0.1936
     30 C         142.6637  137.8391  156.9598 C.ar    1  UNL1        0.1759
     31 N         143.9269  137.3443  156.3199 N.ar    1  UNL1       -0.2242
     32 C         143.8873  136.1619  155.3978 C.ar    1  UNL1        0.1006
     33 C         142.5845  135.4741  155.1157 C.ar    1  UNL1        0.0217
     34 C         141.3213  135.9689  155.7556 C.ar    1  UNL1        0.0161
     35 C         141.3609  137.1513  156.6777 C.ar    1  UNL1        0.0935
     36 CL        140.0977  137.6460  157.3176 Cl      1  UNL1       -0.0790
@<TRIPOS>BOND
     1    16    15    1
     2    16    17    1
     3    17    18    1
     4    16    14    1
     5    14    13    1
     6     1    13    1
     7     1    20    1
     8    20    21    1
     9    21    22   ar
    10    22    23   ar
    11    23    24   ar
    12    24    25   ar
    13    25    26   ar
    14    26    27   ar
    15    27    28   ar
    16    28    29   ar
    17    29    30    1
    18    30    31   ar
    19    31    32   ar
    20    32    33   ar
    21    33    34   ar
    22    34    35   ar
    23    35    36    1
    24     1     2    1
    25     2     3    2
    26     2     4   am
    27     4     6    1
    28     6     7   ar
    29     7     8   ar
    30     8     9   ar
    31     9    10    1
    32     9    11   ar
    33    11    12   ar
    34    26    21   ar
    35    35    30   ar
    36    12     6   ar
    37    29    25   ar
    38    18    19    1
    39     4     5    1
@<TRIPOS>MOLECULE
*****
 36 39 0 0 0
SMALL
GASTEIGER

@<TRIPOS>ATOM
      1 C         137.8516  140.8019  161.4580 C.3     1  UNL1        0.2722
      2 C         138.5702  141.9538  160.8201 C.2     1  UNL1        0.2701
      3 O         138.2874  143.3563  161.2705 O.2     1  UNL1       -0.2707
      4 N         139.5715  141.7030  159.7318 N.am    1  UNL1       -0.2663
      5 H         139.7571  140.7825  159.4362 H       1  UNL1        0.1564
      6 C         140.2901  142.8548  159.0938 C.ar    1  UNL1        0.1344
      7 C         141.7655  143.0268  159.3028 C.ar    1  UNL1        0.0368
      8 C         142.4840  144.1786  158.6649 C.ar    1  UNL1        0.0341
      9 C         141.7272  145.1584  157.8179 C.ar    1  UNL1        0.1593
     10 F         142.4458  146.3102  157.1800 F       1  UNL1       -0.2025
     11 C         140.2518  144.9864  157.6089 C.ar    1  UNL1        0.1298
     12 N         139.5333  143.8345  158.2469 N.ar    1  UNL1       -0.2267
     13 C         137.6958  139.5096  160.7127 C.3     1  UNL1        0.1951
     14 O         138.4979  138.3086  161.1179 O.3     1  UNL1       -0.3493
     15 C         140.6006  138.4570  159.5990 C.3     1  UNL1        0.0347
     16 C         139.9898  138.3156  160.9617 C.3     1  UNL1        0.1446
     17 C         140.8709  138.1812  162.1682 C.3     1  UNL1        0.1666
     18 O         141.0789  136.8363  162.7989 O.3     1  UNL1       -0.3795
     19 H         140.2412  136.5220  163.1737 H       1  UNL1        0.2105
     20 O         137.2888  140.9424  162.8414 O.3     1  UNL1       -0.4517
     21 C         138.1192  140.5614  164.0311 C.ar    1  UNL1        0.2312
     22 N         138.2590  139.1188  164.4172 N.ar    1  UNL1       -0.1892
     23 C         139.0893  138.7378  165.6069 C.ar    1  UNL1        0.2029
     24 N         139.7798  139.7996  166.4105 N.ar    1  UNL1       -0.2045
     25 C         139.6400  141.2423  166.0245 C.ar    1  UNL1        0.1732
     26 C         138.8097  141.6232  164.8348 C.ar    1  UNL1        0.1099
     27 C         138.8555  143.1162  164.6964 C.ar    1  UNL1        0.1283
     28 N         139.7141  143.6579  165.8006 N.ar    1  UNL1       -0.1606
     29 N         140.1989  142.4998  166.6214 N.ar    1  UNL1       -0.1936
     30 C         141.0869  142.5843  167.8274 C.ar    1  UNL1        0.1759
     31 N         140.5240  143.0334  169.1432 N.ar    1  UNL1       -0.2242
     32 C         141.4120  143.1179  170.3492 C.ar    1  UNL1        0.1006
     33 C         142.8628  142.7533  170.2394 C.ar    1  UNL1        0.0217
     34 C         143.4256  142.3041  168.9236 C.ar    1  UNL1        0.0161
     35 C         142.5377  142.2196  167.7176 C.ar    1  UNL1        0.0935
     36 CL        143.1006  141.7704  166.4018 Cl      1  UNL1       -0.0790
@<TRIPOS>BOND
     1    16    15    1
     2    16    17    1
     3    17    18    1
     4    16    14    1
     5    14    13    1
     6     1    13    1
     7     1    20    1
     8    20    21    1
     9    21    22   ar
    10    22    23   ar
    11    23    24   ar
    12    24    25   ar
    13    25    26   ar
    14    26    27   ar
    15    27    28   ar
    16    28    29   ar
    17    29    30    1
    18    30    31   ar
    19    31    32   ar
    20    32    33   ar
    21    33    34   ar
    22    34    35   ar
    23    35    36    1
    24     1     2    1
    25     2     3    2
    26     2     4   am
    27     4     6    1
    28     6     7   ar
    29     7     8   ar
    30     8     9   ar
    31     9    10    1
    32     9    11   ar
    33    11    12   ar
    34    26    21   ar
    35    35    30   ar
    36    12     6   ar
    37    29    25   ar
    38    18    19    1
    39     4     5    1
