@<TRIPOS>MOLECULE
*****
 16 16 0 0 0
SMALL
GASTEIGER

@<TRIPOS>ATOM
      1 C         154.6032  132.9763  163.3716 C.ar    1  UNL1       -0.0208
      2 C         154.5235  134.1704  162.4673 C.ar    1  UNL1       -0.0042
      3 C         154.3905  135.5457  163.0511 C.ar    1  UNL1       -0.0004
      4 C         154.3371  135.7270  164.5391 C.ar    1  UNL1        0.0038
      5 C         154.4168  134.5328  165.4434 C.ar    1  UNL1        0.0711
      6 C         154.5498  133.1575  164.8596 C.ar    1  UNL1       -0.0004
      7 C         154.3634  134.7140  166.9315 C.3     1  UNL1        0.4186
      8 F         154.3100  134.8952  168.4195 F       1  UNL1       -0.1659
      9 F         154.3057  133.2259  167.1106 F       1  UNL1       -0.1659
     10 F         154.4211  136.2021  166.7523 F       1  UNL1       -0.1659
     11 C         154.7362  131.6010  162.7878 C.3     1  UNL1        0.0434
     12 C         155.8583  130.7064  163.2240 C.3     1  UNL1        0.0733
     13 N         155.5580  129.3668  163.8285 N.3     1  UNL1       -0.2972
     14 H         155.3080  128.7459  163.0589 H       1  UNL1        0.1233
     15 C         154.7227  129.6936  166.2669 C.3     1  UNL1        0.0185
     16 C         154.4769  129.2349  164.8600 C.3     1  UNL1        0.0686
@<TRIPOS>BOND
     1    15    16    1
     2    16    13    1
     3    13    12    1
     4    12    11    1
     5    11     1    1
     6     1     2   ar
     7     2     3   ar
     8     3     4   ar
     9     4     5   ar
    10     5     7    1
    11     7     8    1
    12     7     9    1
    13     7    10    1
    14     5     6   ar
    15     6     1   ar
    16    13    14    1
@<TRIPOS>MOLECULE
*****
 16 16 0 0 0
SMALL
GASTEIGER

@<TRIPOS>ATOM
      1 C         139.9635  141.2411  168.8953 C.ar    1  UNL1       -0.0208
      2 C         140.4143  142.4195  168.0842 C.ar    1  UNL1       -0.0042
      3 C         140.3641  142.3622  166.5861 C.ar    1  UNL1       -0.0004
      4 C         139.8630  141.1265  165.8992 C.ar    1  UNL1        0.0038
      5 C         139.4122  139.9481  166.7104 C.ar    1  UNL1        0.0711
      6 C         139.4624  140.0054  168.2084 C.ar    1  UNL1       -0.0004
      7 C         138.9111  138.7123  166.0235 C.3     1  UNL1        0.4186
      8 F         138.4100  137.4765  165.3366 F       1  UNL1       -0.1659
      9 F         137.5092  139.0521  166.4347 F       1  UNL1       -0.1659
     10 F         140.3130  138.3725  165.6122 F       1  UNL1       -0.1659
     11 C         140.0137  141.2984  170.3934 C.3     1  UNL1        0.0434
     12 C         141.3190  141.1092  171.1078 C.3     1  UNL1        0.0733
     13 N         142.0799  142.3012  171.6079 N.3     1  UNL1       -0.2972
     14 H         141.3903  142.9611  171.9676 H       1  UNL1        0.1233
     15 C         143.7883  142.3415  169.6508 C.3     1  UNL1        0.0185
     16 C         142.9685  143.0692  170.6747 C.3     1  UNL1        0.0686
@<TRIPOS>BOND
     1    15    16    1
     2    16    13    1
     3    13    12    1
     4    12    11    1
     5    11     1    1
     6     1     2   ar
     7     2     3   ar
     8     3     4   ar
     9     4     5   ar
    10     5     7    1
    11     7     8    1
    12     7     9    1
    13     7    10    1
    14     5     6   ar
    15     6     1   ar
    16    13    14    1
@<TRIPOS>MOLECULE
*****
 16 16 0 0 0
SMALL
GASTEIGER

@<TRIPOS>ATOM
      1 C         138.0305  139.9836  163.1291 C.ar    1  UNL1       -0.0208
      2 C         138.4879  138.6700  162.5677 C.ar    1  UNL1       -0.0042
      3 C         138.9996  137.5995  163.4854 C.ar    1  UNL1       -0.0004
      4 C         139.0539  137.8426  164.9646 C.ar    1  UNL1        0.0038
      5 C         138.5964  139.1561  165.5260 C.ar    1  UNL1        0.0711
      6 C         138.0847  140.2266  164.6082 C.ar    1  UNL1       -0.0004
      7 C         138.6506  139.3993  167.0052 C.3     1  UNL1        0.4186
      8 F         138.7048  139.6424  168.4843 F       1  UNL1       -0.1659
      9 F         140.0068  140.0219  166.8532 F       1  UNL1       -0.1659
     10 F         137.2945  138.7766  167.1572 F       1  UNL1       -0.1659
     11 C         137.5188  141.0540  162.2114 C.3     1  UNL1        0.0434
     12 C         138.3501  142.2738  161.9448 C.3     1  UNL1        0.0733
     13 N         137.7435  143.6390  162.0800 N.3     1  UNL1       -0.2972
     14 H         137.9709  144.1481  161.2259 H       1  UNL1        0.1233
     15 C         137.8679  144.0828  164.6369 C.3     1  UNL1        0.0185
     16 C         138.1336  144.5226  163.2277 C.3     1  UNL1        0.0686
@<TRIPOS>BOND
     1    15    16    1
     2    16    13    1
     3    13    12    1
     4    12    11    1
     5    11     1    1
     6     1     2   ar
     7     2     3   ar
     8     3     4   ar
     9     4     5   ar
    10     5     7    1
    11     7     8    1
    12     7     9    1
    13     7    10    1
    14     5     6   ar
    15     6     1   ar
    16    13    14    1
@<TRIPOS>MOLECULE
*****
 16 16 0 0 0
SMALL
GASTEIGER

@<TRIPOS>ATOM
      1 C         141.4370  142.6373  166.6029 C.ar    1  UNL1       -0.0208
      2 C         142.8578  142.2756  166.9199 C.ar    1  UNL1       -0.0042
      3 C         143.3178  142.2224  168.3466 C.ar    1  UNL1       -0.0004
      4 C         142.3570  142.5310  169.4564 C.ar    1  UNL1        0.0038
      5 C         140.9363  142.8927  169.1394 C.ar    1  UNL1        0.0711
      6 C         140.4763  142.9459  167.7127 C.ar    1  UNL1       -0.0004
      7 C         139.9754  143.2013  170.2492 C.3     1  UNL1        0.4186
      8 F         139.0146  143.5098  171.3590 F       1  UNL1       -0.1659
      9 F         140.3286  144.6558  170.1507 F       1  UNL1       -0.1659
     10 F         139.6222  141.7469  170.3478 F       1  UNL1       -0.1659
     11 C         140.9770  142.6905  165.1762 C.3     1  UNL1        0.0434
     12 C         141.2119  143.9255  164.3579 C.3     1  UNL1        0.0733
     13 N         140.1373  144.9659  164.2449 N.3     1  UNL1       -0.2972
     14 H         140.5608  145.8562  164.5064 H       1  UNL1        0.1233
     15 C         137.7229  144.0427  164.5072 C.3     1  UNL1        0.0185
     16 C         138.8774  144.8331  165.0481 C.3     1  UNL1        0.0686
@<TRIPOS>BOND
     1    15    16    1
     2    16    13    1
     3    13    12    1
     4    12    11    1
     5    11     1    1
     6     1     2   ar
     7     2     3   ar
     8     3     4   ar
     9     4     5   ar
    10     5     7    1
    11     7     8    1
    12     7     9    1
    13     7    10    1
    14     5     6   ar
    15     6     1   ar
    16    13    14    1
@<TRIPOS>MOLECULE
*****
 16 16 0 0 0
SMALL
GASTEIGER

@<TRIPOS>ATOM
      1 C         138.5530  141.6882  164.4623 C.ar    1  UNL1       -0.0208
      2 C         139.5295  142.3734  165.3716 C.ar    1  UNL1       -0.0042
      3 C         140.0246  141.6751  166.6034 C.ar    1  UNL1       -0.0004
      4 C         139.5431  140.2916  166.9259 C.ar    1  UNL1        0.0038
      5 C         138.5666  139.6064  166.0166 C.ar    1  UNL1        0.0711
      6 C         138.0715  140.3047  164.7848 C.ar    1  UNL1       -0.0004
      7 C         138.0851  138.2228  166.3391 C.3     1  UNL1        0.4186
      8 F         137.6036  136.8393  166.6616 F       1  UNL1       -0.1659
      9 F         138.8171  137.6893  165.1435 F       1  UNL1       -0.1659
     10 F         137.3531  138.7563  167.5347 F       1  UNL1       -0.1659
     11 C         138.0579  142.3864  163.2305 C.3     1  UNL1        0.0434
     12 C         137.6348  143.8237  163.3020 C.3     1  UNL1        0.0733
     13 N         138.3530  144.8584  162.4874 N.3     1  UNL1       -0.2972
     14 H         137.8650  144.9206  161.5939 H       1  UNL1        0.1233
     15 C         140.8471  145.1467  163.1559 C.3     1  UNL1        0.0185
     16 C         139.8100  144.6876  162.1741 C.3     1  UNL1        0.0686
@<TRIPOS>BOND
     1    15    16    1
     2    16    13    1
     3    13    12    1
     4    12    11    1
     5    11     1    1
     6     1     2   ar
     7     2     3   ar
     8     3     4   ar
     9     4     5   ar
    10     5     7    1
    11     7     8    1
    12     7     9    1
    13     7    10    1
    14     5     6   ar
    15     6     1   ar
    16    13    14    1
@<TRIPOS>MOLECULE
*****
 16 16 0 0 0
SMALL
GASTEIGER

@<TRIPOS>ATOM
      1 C         140.1060  141.6111  166.9561 C.ar    1  UNL1       -0.0208
      2 C         139.7344  142.3279  165.6919 C.ar    1  UNL1       -0.0042
      3 C         138.7961  141.6856  164.7136 C.ar    1  UNL1       -0.0004
      4 C         138.2293  140.3266  164.9995 C.ar    1  UNL1        0.0038
      5 C         138.6009  139.6098  166.2637 C.ar    1  UNL1        0.0711
      6 C         139.5392  140.2521  167.2420 C.ar    1  UNL1       -0.0004
      7 C         138.0341  138.2507  166.5496 C.3     1  UNL1        0.4186
      8 F         137.4674  136.8917  166.8355 F       1  UNL1       -0.1659
      9 F         137.4335  138.7690  167.8227 F       1  UNL1       -0.1659
     10 F         138.6347  137.7325  165.2766 F       1  UNL1       -0.1659
     11 C         141.0443  142.2534  167.9343 C.3     1  UNL1        0.0434
     12 C         140.5031  143.1040  169.0450 C.3     1  UNL1        0.0733
     13 N         140.7888  142.7440  170.4728 N.3     1  UNL1       -0.2972
     14 H         141.4973  143.3981  170.8053 H       1  UNL1        0.1233
     15 C         140.3136  140.2164  170.8409 C.3     1  UNL1        0.0185
     16 C         141.2753  141.3672  170.8163 C.3     1  UNL1        0.0686
@<TRIPOS>BOND
     1    15    16    1
     2    16    13    1
     3    13    12    1
     4    12    11    1
     5    11     1    1
     6     1     2   ar
     7     2     3   ar
     8     3     4   ar
     9     4     5   ar
    10     5     7    1
    11     7     8    1
    12     7     9    1
    13     7    10    1
    14     5     6   ar
    15     6     1   ar
    16    13    14    1
@<TRIPOS>MOLECULE
*****
 16 16 0 0 0
SMALL
GASTEIGER

@<TRIPOS>ATOM
      1 C         139.6143  139.8190  167.0203 C.ar    1  UNL1       -0.0208
      2 C         138.3082  139.1841  167.3956 C.ar    1  UNL1       -0.0042
      3 C         137.8002  138.0018  166.6249 C.ar    1  UNL1       -0.0004
      4 C         138.5982  137.4544  165.4789 C.ar    1  UNL1        0.0038
      5 C         139.9043  138.0893  165.1035 C.ar    1  UNL1        0.0711
      6 C         140.4124  139.2716  165.8742 C.ar    1  UNL1       -0.0004
      7 C         140.7024  137.5419  163.9574 C.3     1  UNL1        0.4186
      8 F         141.5005  136.9946  162.8114 F       1  UNL1       -0.1659
      9 F         139.4324  137.1916  163.2403 F       1  UNL1       -0.1659
     10 F         141.9724  137.8922  164.6746 F       1  UNL1       -0.1659
     11 C         140.1224  141.0013  167.7910 C.3     1  UNL1        0.0434
     12 C         140.4068  140.8742  169.2582 C.3     1  UNL1        0.0733
     13 N         139.4709  141.4841  170.2593 N.3     1  UNL1       -0.2972
     14 H         138.5365  141.4420  169.8525 H       1  UNL1        0.1233
     15 C         140.5158  143.8353  169.8989 C.3     1  UNL1        0.0185
     16 C         139.6802  142.8968  170.7180 C.3     1  UNL1        0.0686
@<TRIPOS>BOND
     1    15    16    1
     2    16    13    1
     3    13    12    1
     4    12    11    1
     5    11     1    1
     6     1     2   ar
     7     2     3   ar
     8     3     4   ar
     9     4     5   ar
    10     5     7    1
    11     7     8    1
    12     7     9    1
    13     7    10    1
    14     5     6   ar
    15     6     1   ar
    16    13    14    1
@<TRIPOS>MOLECULE
*****
 16 16 0 0 0
SMALL
GASTEIGER

@<TRIPOS>ATOM
      1 C         140.1480  141.3875  166.7006 C.ar    1  UNL1       -0.0208
      2 C         139.6485  142.1135  165.4867 C.ar    1  UNL1       -0.0042
      3 C         138.5856  141.4953  164.6276 C.ar    1  UNL1       -0.0004
      4 C         138.0223  140.1511  164.9822 C.ar    1  UNL1        0.0038
      5 C         138.5218  139.4252  166.1961 C.ar    1  UNL1        0.0711
      6 C         139.5846  140.0434  167.0552 C.ar    1  UNL1       -0.0004
      7 C         137.9584  138.0809  166.5508 C.3     1  UNL1        0.4186
      8 F         137.3951  136.7368  166.9055 F       1  UNL1       -0.1659
      9 F         137.3090  138.6737  167.7660 F       1  UNL1       -0.1659
     10 F         138.6079  137.4881  165.3356 F       1  UNL1       -0.1659
     11 C         141.2108  142.0057  167.5597 C.3     1  UNL1        0.0434
     12 C         142.6224  141.5040  167.4839 C.3     1  UNL1        0.0733
     13 N         143.0866  140.7507  166.2727 N.3     1  UNL1       -0.2972
     14 H         142.4373  140.9760  165.5191 H       1  UNL1        0.1233
     15 C         142.3495  138.4137  165.4093 C.3     1  UNL1        0.0185
     16 C         143.1973  139.2553  166.3164 C.3     1  UNL1        0.0686
@<TRIPOS>BOND
     1    15    16    1
     2    16    13    1
     3    13    12    1
     4    12    11    1
     5    11     1    1
     6     1     2   ar
     7     2     3   ar
     8     3     4   ar
     9     4     5   ar
    10     5     7    1
    11     7     8    1
    12     7     9    1
    13     7    10    1
    14     5     6   ar
    15     6     1   ar
    16    13    14    1
@<TRIPOS>MOLECULE
*****
 16 16 0 0 0
SMALL
GASTEIGER

@<TRIPOS>ATOM
      1 C         140.0501  139.9830  168.3412 C.ar    1  UNL1       -0.0208
      2 C         141.5441  139.8946  168.2409 C.ar    1  UNL1       -0.0042
      3 C         142.1867  139.5004  166.9441 C.ar    1  UNL1       -0.0004
      4 C         141.3354  139.1946  165.7476 C.ar    1  UNL1        0.0038
      5 C         139.8414  139.2831  165.8479 C.ar    1  UNL1        0.0711
      6 C         139.1987  139.6773  167.1447 C.ar    1  UNL1       -0.0004
      7 C         138.9899  138.9774  164.6513 C.3     1  UNL1        0.4186
      8 F         138.1385  138.6717  163.4549 F       1  UNL1       -0.1659
      9 F         140.1430  138.2603  164.0140 F       1  UNL1       -0.1659
     10 F         137.8369  139.6944  165.2887 F       1  UNL1       -0.1659
     11 C         139.4075  140.3773  169.6379 C.3     1  UNL1        0.0434
     12 C         140.2195  140.4075  170.8987 C.3     1  UNL1        0.0733
     13 N         140.6636  141.7199  171.4735 N.3     1  UNL1       -0.2972
     14 H         139.8309  142.1736  171.8493 H       1  UNL1        0.1233
     15 C         140.5409  143.7586  169.8677 C.3     1  UNL1        0.0185
     16 C         141.3488  142.7281  170.5994 C.3     1  UNL1        0.0686
@<TRIPOS>BOND
     1    15    16    1
     2    16    13    1
     3    13    12    1
     4    12    11    1
     5    11     1    1
     6     1     2   ar
     7     2     3   ar
     8     3     4   ar
     9     4     5   ar
    10     5     7    1
    11     7     8    1
    12     7     9    1
    13     7    10    1
    14     5     6   ar
    15     6     1   ar
    16    13    14    1
