@<TRIPOS>MOLECULE
*****
 40 44 0 0 0
SMALL
GASTEIGER

@<TRIPOS>ATOM
      1 C         141.0540  138.5390  160.3727 C.3     1  UNL1        0.1035
      2 C         140.1667  139.4972  161.1105 C.3     1  UNL1        0.0933
      3 N         140.5647  138.8643  162.4110 N.3     1  UNL1       -0.2711
      4 C         141.4520  137.9060  161.6731 C.3     1  UNL1        0.0933
      5 C         140.2187  139.0942  163.8523 C.3     1  UNL1        0.0578
      6 C         139.0033  138.4447  164.4446 C.3     1  UNL1        0.0187
      7 C         138.6573  138.6747  165.8860 C.3     1  UNL1        0.0325
      8 C         139.5266  139.5542  166.7349 C.3     1  UNL1        0.1071
      9 O         138.4879  139.1629  167.7438 O.3     1  UNL1       -0.3827
     10 C         140.7420  140.2038  166.1425 C.3     1  UNL1        0.0325
     11 C         141.0880  139.9738  164.7012 C.3     1  UNL1        0.0187
     12 H         137.8374  138.5761  167.3272 H       1  UNL1        0.2107
     13 C         140.0353  140.2979  167.9342 C.ar    1  UNL1        0.0049
     14 C         139.3017  140.2074  169.2394 C.ar    1  UNL1        0.0013
     15 C         139.8103  140.9511  170.4387 C.ar    1  UNL1        0.0399
     16 C         141.0525  141.7852  170.3327 C.ar    1  UNL1        0.1764
     17 C         141.7861  141.8757  169.0275 C.ar    1  UNL1        0.1762
     18 C         141.2775  141.1320  167.8282 C.ar    1  UNL1        0.0381
     19 O         142.9741  142.7699  169.2244 O.3     1  UNL1       -0.4346
     20 C         142.9748  143.2322  170.6514 C.3     1  UNL1        0.4294
     21 O         141.7872  142.6236  171.3364 O.3     1  UNL1       -0.4346
     22 O         143.8096  139.1754  159.3715 O.2     1  UNL1       -0.2733
     23 C         142.7778  138.6272  158.4308 C.2     1  UNL1        0.2426
     24 N         141.4001  138.3090  158.9313 N.am    1  UNL1       -0.3018
     25 H         140.7230  137.9492  158.3139 H       1  UNL1        0.1495
     26 C         143.1239  138.3972  156.9895 C.3     1  UNL1        0.1759
     27 N         143.4407  137.0132  156.5058 N.am    1  UNL1       -0.2931
     28 C         142.3295  136.0666  156.1603 C.2     1  UNL1        0.2462
     29 O         140.9014  136.5043  156.2984 O.2     1  UNL1       -0.2701
     30 H         144.3780  136.7260  156.4152 H       1  UNL1        0.1502
     31 C         142.6465  134.6826  155.6766 C.ar    1  UNL1        0.0533
     32 C         142.2799  134.2735  154.2808 C.ar    1  UNL1        0.0045
     33 C         142.5968  132.8895  153.7972 C.ar    1  UNL1        0.0001
     34 C         143.2804  131.9144  154.7094 C.ar    1  UNL1        0.0039
     35 C         143.6470  132.3235  156.1052 C.ar    1  UNL1        0.0716
     36 C         143.3300  133.7076  156.5888 C.ar    1  UNL1        0.0084
     37 C         144.3306  131.3486  157.0174 C.3     1  UNL1        0.4186
     38 F         145.0141  130.3735  157.9297 F       1  UNL1       -0.1659
     39 F         142.9955  130.8346  157.4686 F       1  UNL1       -0.1659
     40 F         145.6656  131.8625  156.5663 F       1  UNL1       -0.1659
@<TRIPOS>BOND
     1    22    23    2
     2    23    26    1
     3    26    27    1
     4    27    28   am
     5    28    29    2
     6    28    31    1
     7    31    32   ar
     8    32    33   ar
     9    33    34   ar
    10    34    35   ar
    11    35    37    1
    12    37    38    1
    13    37    39    1
    14    37    40    1
    15    35    36   ar
    16    23    24   am
    17    24     1    1
    18     1     2    1
    19     2     3    1
    20     5     3    1
    21     5     6    1
    22     6     7    1
    23     7     8    1
    24     8     9    1
    25     8    13    1
    26    13    14   ar
    27    14    15   ar
    28    15    16   ar
    29    16    17   ar
    30    17    18   ar
    31    17    19    1
    32    19    20    1
    33    20    21    1
    34     8    10    1
    35    10    11    1
    36     3     4    1
    37    36    31   ar
    38     4     1    1
    39    11     5    1
    40    18    13   ar
    41    21    16    1
    42    27    30    1
    43    24    25    1
    44     9    12    1
@<TRIPOS>MOLECULE
*****
 40 44 0 0 0
SMALL
GASTEIGER

@<TRIPOS>ATOM
      1 C         139.0308  139.8820  158.8666 C.3     1  UNL1        0.1035
      2 C         140.2660  140.5794  159.3542 C.3     1  UNL1        0.0933
      3 N         140.2266  139.7676  160.6150 N.3     1  UNL1       -0.2711
      4 C         138.9913  139.0702  160.1274 C.3     1  UNL1        0.0933
      5 C         141.0722  139.6867  161.8513 C.3     1  UNL1        0.0578
      6 C         142.3253  138.8623  161.8502 C.3     1  UNL1        0.0187
      7 C         143.1709  138.7814  163.0866 C.3     1  UNL1        0.0325
      8 C         142.7634  139.5250  164.3239 C.3     1  UNL1        0.1071
      9 O         144.0274  138.8811  164.8114 O.3     1  UNL1       -0.3827
     10 C         141.5103  140.3495  164.3249 C.3     1  UNL1        0.0325
     11 C         140.6647  140.4304  163.0887 C.3     1  UNL1        0.0187
     12 H         144.4163  138.3512  164.0980 H       1  UNL1        0.2107
     13 C         142.7948  140.0450  165.7306 C.ar    1  UNL1        0.0049
     14 C         142.8762  141.5213  165.9828 C.ar    1  UNL1        0.0013
     15 C         142.9077  142.0414  167.3894 C.ar    1  UNL1        0.0399
     16 C         142.8578  141.0849  168.5438 C.ar    1  UNL1        0.1764
     17 C         142.7763  139.6085  168.2917 C.ar    1  UNL1        0.1762
     18 C         142.7449  139.0885  166.8850 C.ar    1  UNL1        0.0381
     19 O         142.7410  138.9126  169.6200 O.3     1  UNL1       -0.4346
     20 C         142.8006  139.9590  170.6931 C.3     1  UNL1        0.4294
     21 O         142.8728  141.3015  170.0280 O.3     1  UNL1       -0.4346
     22 O         137.7934  142.4944  158.0637 O.2     1  UNL1       -0.2733
     23 C         137.5665  141.2690  157.2289 C.2     1  UNL1        0.2426
     24 N         138.1852  139.9628  157.6303 N.am    1  UNL1       -0.3018
     25 H         138.0362  139.1586  157.0823 H       1  UNL1        0.1495
     26 C         136.7209  141.3498  155.9926 C.3     1  UNL1        0.1759
     27 N         135.2273  141.4241  156.1090 N.am    1  UNL1       -0.2931
     28 C         134.3946  140.1992  155.8717 C.2     1  UNL1        0.2462
     29 O         135.0556  138.9000  155.5181 O.2     1  UNL1       -0.2701
     30 H         134.7935  142.2769  156.3411 H       1  UNL1        0.1502
     31 C         132.9010  140.2736  155.9882 C.ar    1  UNL1        0.0533
     32 C         132.1566  141.4198  155.3701 C.ar    1  UNL1        0.0045
     33 C         130.6631  141.4942  155.4865 C.ar    1  UNL1        0.0001
     34 C         129.9137  140.4223  156.2211 C.ar    1  UNL1        0.0039
     35 C         130.6581  139.2761  156.8393 C.ar    1  UNL1        0.0716
     36 C         132.1518  139.2017  156.7228 C.ar    1  UNL1        0.0084
     37 C         129.9088  138.2042  157.5739 C.3     1  UNL1        0.4186
     38 F         129.1595  137.1323  158.3086 F       1  UNL1       -0.1659
     39 F         129.7516  139.1208  158.7508 F       1  UNL1       -0.1659
     40 F         130.0660  137.2877  156.3969 F       1  UNL1       -0.1659
@<TRIPOS>BOND
     1    22    23    2
     2    23    26    1
     3    26    27    1
     4    27    28   am
     5    28    29    2
     6    28    31    1
     7    31    32   ar
     8    32    33   ar
     9    33    34   ar
    10    34    35   ar
    11    35    37    1
    12    37    38    1
    13    37    39    1
    14    37    40    1
    15    35    36   ar
    16    23    24   am
    17    24     1    1
    18     1     2    1
    19     2     3    1
    20     5     3    1
    21     5     6    1
    22     6     7    1
    23     7     8    1
    24     8     9    1
    25     8    13    1
    26    13    14   ar
    27    14    15   ar
    28    15    16   ar
    29    16    17   ar
    30    17    18   ar
    31    17    19    1
    32    19    20    1
    33    20    21    1
    34     8    10    1
    35    10    11    1
    36     3     4    1
    37    36    31   ar
    38     4     1    1
    39    11     5    1
    40    18    13   ar
    41    21    16    1
    42    27    30    1
    43    24    25    1
    44     9    12    1
@<TRIPOS>MOLECULE
*****
 40 44 0 0 0
SMALL
GASTEIGER

@<TRIPOS>ATOM
      1 C         137.8470  140.1478  160.1381 C.3     1  UNL1        0.1035
      2 C         138.4996  141.1344  161.0605 C.3     1  UNL1        0.0933
      3 N         138.9375  140.0107  161.9525 N.3     1  UNL1       -0.2711
      4 C         138.2849  139.0241  161.0301 C.3     1  UNL1        0.0933
      5 C         139.7086  139.9137  163.2355 C.3     1  UNL1        0.0578
      6 C         140.7697  138.8656  163.3953 C.3     1  UNL1        0.0187
      7 C         141.5408  138.7687  164.6784 C.3     1  UNL1        0.0325
      8 C         141.2508  139.7198  165.8014 C.3     1  UNL1        0.1071
      9 O         142.3429  138.9035  166.4267 O.3     1  UNL1       -0.3827
     10 C         140.1897  140.7679  165.6415 C.3     1  UNL1        0.0325
     11 C         139.4186  140.8648  164.3586 C.3     1  UNL1        0.0187
     12 H         142.6404  138.2265  165.7990 H       1  UNL1        0.2107
     13 C         141.3400  140.3874  167.1417 C.ar    1  UNL1        0.0049
     14 C         140.2557  140.1795  168.1569 C.ar    1  UNL1        0.0013
     15 C         140.3449  140.8471  169.4971 C.ar    1  UNL1        0.0399
     16 C         141.5186  141.7227  169.8221 C.ar    1  UNL1        0.1764
     17 C         142.6031  141.9307  168.8069 C.ar    1  UNL1        0.1762
     18 C         142.5139  141.2631  167.4667 C.ar    1  UNL1        0.0381
     19 O         143.6317  142.8424  169.4076 O.3     1  UNL1       -0.4346
     20 C         143.1830  143.1978  170.7940 C.3     1  UNL1        0.4294
     21 O         141.8770  142.5059  171.0503 O.3     1  UNL1       -0.4346
     22 O         139.0583  141.5177  157.7598 O.2     1  UNL1       -0.2733
     23 C         137.6816  140.9297  157.6660 C.2     1  UNL1        0.2426
     24 N         137.0759  140.2448  158.8551 N.am    1  UNL1       -0.3018
     25 H         136.1723  139.8589  158.7935 H       1  UNL1        0.1495
     26 C         136.9104  141.0266  156.3830 C.3     1  UNL1        0.1759
     27 N         135.4150  141.1381  156.4133 N.am    1  UNL1       -0.2931
     28 C         134.5678  139.9945  155.9394 C.2     1  UNL1        0.2462
     29 O         135.2163  138.7394  155.4351 O.2     1  UNL1       -0.2701
     30 H         134.9894  141.9619  156.7443 H       1  UNL1        0.1502
     31 C         133.0723  140.1061  155.9698 C.ar    1  UNL1        0.0533
     32 C         132.3989  141.3196  155.4005 C.ar    1  UNL1        0.0045
     33 C         130.9035  141.4311  155.4309 C.ar    1  UNL1        0.0001
     34 C         130.0812  140.3291  156.0306 C.ar    1  UNL1        0.0039
     35 C         130.7545  139.1156  156.5998 C.ar    1  UNL1        0.0716
     36 C         132.2501  139.0041  156.5694 C.ar    1  UNL1        0.0084
     37 C         129.9323  138.0136  157.1994 C.3     1  UNL1        0.4186
     38 F         129.1101  136.9116  157.7990 F       1  UNL1       -0.1659
     39 F         129.4543  137.6259  155.8315 F       1  UNL1       -0.1659
     40 F         130.4103  138.4013  158.5673 F       1  UNL1       -0.1659
@<TRIPOS>BOND
     1    22    23    2
     2    23    26    1
     3    26    27    1
     4    27    28   am
     5    28    29    2
     6    28    31    1
     7    31    32   ar
     8    32    33   ar
     9    33    34   ar
    10    34    35   ar
    11    35    37    1
    12    37    38    1
    13    37    39    1
    14    37    40    1
    15    35    36   ar
    16    23    24   am
    17    24     1    1
    18     1     2    1
    19     2     3    1
    20     5     3    1
    21     5     6    1
    22     6     7    1
    23     7     8    1
    24     8     9    1
    25     8    13    1
    26    13    14   ar
    27    14    15   ar
    28    15    16   ar
    29    16    17   ar
    30    17    18   ar
    31    17    19    1
    32    19    20    1
    33    20    21    1
    34     8    10    1
    35    10    11    1
    36     3     4    1
    37    36    31   ar
    38     4     1    1
    39    11     5    1
    40    18    13   ar
    41    21    16    1
    42    27    30    1
    43    24    25    1
    44     9    12    1
@<TRIPOS>MOLECULE
*****
 40 44 0 0 0
SMALL
GASTEIGER

@<TRIPOS>ATOM
      1 C         142.6505  138.4483  159.5976 C.3     1  UNL1        0.1035
      2 C         143.1622  138.0367  160.9461 C.3     1  UNL1        0.0933
      3 N         142.7470  139.3638  161.5088 N.3     1  UNL1       -0.2711
      4 C         142.2353  139.7754  160.1601 C.3     1  UNL1        0.0933
      5 C         142.8152  140.0112  162.8601 C.3     1  UNL1        0.0578
      6 C         143.8514  141.0596  163.1380 C.3     1  UNL1        0.0187
      7 C         143.9196  141.7070  164.4895 C.3     1  UNL1        0.0325
      8 C         142.9517  141.3058  165.5629 C.3     1  UNL1        0.1071
      9 O         143.7477  142.3397  166.3029 O.3     1  UNL1       -0.3827
     10 C         141.9156  140.2574  165.2850 C.3     1  UNL1        0.0325
     11 C         141.8474  139.6100  163.9336 C.3     1  UNL1        0.0187
     12 H         144.4329  142.6997  165.7182 H       1  UNL1        0.2107
     13 C         142.2602  141.2638  166.8934 C.ar    1  UNL1        0.0049
     14 C         142.2981  140.0121  167.7191 C.ar    1  UNL1        0.0013
     15 C         141.6066  139.9700  169.0495 C.ar    1  UNL1        0.0399
     16 C         140.8774  141.1797  169.5543 C.ar    1  UNL1        0.1764
     17 C         140.8395  142.4315  168.7287 C.ar    1  UNL1        0.1762
     18 C         141.5309  142.4735  167.3982 C.ar    1  UNL1        0.0381
     19 O         140.0477  143.4594  169.4812 O.3     1  UNL1       -0.4346
     20 C         139.5962  142.8430  170.7720 C.3     1  UNL1        0.4294
     21 O         140.1089  141.4340  170.8172 O.3     1  UNL1       -0.4346
     22 O         140.0371  138.3100  158.1308 O.2     1  UNL1       -0.2733
     23 C         141.2756  137.7318  157.5128 C.2     1  UNL1        0.2426
     24 N         142.5823  137.8010  158.2461 N.am    1  UNL1       -0.3018
     25 H         143.3951  137.4215  157.8405 H       1  UNL1        0.1495
     26 C         141.2074  137.0845  156.1613 C.3     1  UNL1        0.1759
     27 N         141.1667  135.5895  156.0470 N.am    1  UNL1       -0.2931
     28 C         142.4233  134.7893  156.2230 C.2     1  UNL1        0.2462
     29 O         143.7205  135.4843  156.5132 O.2     1  UNL1       -0.2701
     30 H         140.3153  135.1334  155.8565 H       1  UNL1        0.1502
     31 C         142.3825  133.2943  156.1086 C.ar    1  UNL1        0.0533
     32 C         141.5006  132.6441  155.0842 C.ar    1  UNL1        0.0045
     33 C         141.4598  131.1491  154.9698 C.ar    1  UNL1        0.0001
     34 C         142.3011  130.3040  155.8800 C.ar    1  UNL1        0.0039
     35 C         143.1831  130.9542  156.9044 C.ar    1  UNL1        0.0716
     36 C         143.2238  132.4493  157.0187 C.ar    1  UNL1        0.0084
     37 C         144.0244  130.1093  157.8145 C.3     1  UNL1        0.4186
     38 F         144.8656  129.2643  158.7246 F       1  UNL1       -0.1659
     39 F         143.1997  128.9073  157.4608 F       1  UNL1       -0.1659
     40 F         144.8490  131.3113  158.1682 F       1  UNL1       -0.1659
@<TRIPOS>BOND
     1    22    23    2
     2    23    26    1
     3    26    27    1
     4    27    28   am
     5    28    29    2
     6    28    31    1
     7    31    32   ar
     8    32    33   ar
     9    33    34   ar
    10    34    35   ar
    11    35    37    1
    12    37    38    1
    13    37    39    1
    14    37    40    1
    15    35    36   ar
    16    23    24   am
    17    24     1    1
    18     1     2    1
    19     2     3    1
    20     5     3    1
    21     5     6    1
    22     6     7    1
    23     7     8    1
    24     8     9    1
    25     8    13    1
    26    13    14   ar
    27    14    15   ar
    28    15    16   ar
    29    16    17   ar
    30    17    18   ar
    31    17    19    1
    32    19    20    1
    33    20    21    1
    34     8    10    1
    35    10    11    1
    36     3     4    1
    37    36    31   ar
    38     4     1    1
    39    11     5    1
    40    18    13   ar
    41    21    16    1
    42    27    30    1
    43    24    25    1
    44     9    12    1
@<TRIPOS>MOLECULE
*****
 40 44 0 0 0
SMALL
GASTEIGER

@<TRIPOS>ATOM
      1 C         141.1657  138.5784  159.2693 C.3     1  UNL1        0.1035
      2 C         141.8446  139.6462  160.0747 C.3     1  UNL1        0.0933
      3 N         140.7466  139.5752  161.0943 N.3     1  UNL1       -0.2711
      4 C         140.0676  138.5074  160.2888 C.3     1  UNL1        0.0933
      5 C         140.4503  140.2801  162.3847 C.3     1  UNL1        0.0578
      6 C         139.9601  141.6977  162.3696 C.3     1  UNL1        0.0187
      7 C         139.6638  142.4026  163.6602 C.3     1  UNL1        0.0325
      8 C         139.8577  141.6898  164.9657 C.3     1  UNL1        0.1071
      9 O         139.3768  143.0204  165.4641 O.3     1  UNL1       -0.3827
     10 C         140.3478  140.2723  164.9808 C.3     1  UNL1        0.0325
     11 C         140.6441  139.5674  163.6903 C.3     1  UNL1        0.0187
     12 H         139.2049  143.6054  164.7097 H       1  UNL1        0.2107
     13 C         139.8845  141.4392  166.4444 C.ar    1  UNL1        0.0049
     14 C         139.3061  140.1721  167.0009 C.ar    1  UNL1        0.0013
     15 C         139.3330  139.9215  168.4796 C.ar    1  UNL1        0.0399
     16 C         139.9382  140.9380  169.4017 C.ar    1  UNL1        0.1764
     17 C         140.5166  142.2052  168.8452 C.ar    1  UNL1        0.1762
     18 C         140.4898  142.4558  167.3665 C.ar    1  UNL1        0.0381
     19 O         141.0425  143.0174  169.9914 O.3     1  UNL1       -0.4346
     20 C         140.7890  142.2521  171.2564 C.3     1  UNL1        0.4294
     21 O         140.1066  140.9670  170.8920 O.3     1  UNL1       -0.4346
     22 O         139.0742  138.4362  157.1231 O.2     1  UNL1       -0.2733
     23 C         140.4163  137.8024  156.9057 C.2     1  UNL1        0.2426
     24 N         141.4620  137.8735  157.9787 N.am    1  UNL1       -0.3018
     25 H         142.3428  137.4575  157.8360 H       1  UNL1        0.1495
     26 C         140.7126  137.0975  155.6152 C.3     1  UNL1        0.1759
     27 N         140.8267  135.6022  155.5864 N.am    1  UNL1       -0.2931
     28 C         142.0885  134.9371  156.0509 C.2     1  UNL1        0.2462
     29 O         143.2361  135.7676  156.5443 O.2     1  UNL1       -0.2701
     30 H         140.0735  135.0572  155.2626 H       1  UNL1        0.1502
     31 C         142.2025  133.4418  156.0221 C.ar    1  UNL1        0.0533
     32 C         141.3357  132.6412  155.0960 C.ar    1  UNL1        0.0045
     33 C         141.4498  131.1458  155.0671 C.ar    1  UNL1        0.0001
     34 C         142.4307  130.4510  155.9645 C.ar    1  UNL1        0.0039
     35 C         143.2975  131.2516  156.8906 C.ar    1  UNL1        0.0716
     36 C         143.1834  132.7470  156.9194 C.ar    1  UNL1        0.0084
     37 C         144.2783  130.5569  157.7879 C.3     1  UNL1        0.4186
     38 F         145.2592  129.8620  158.6852 F       1  UNL1       -0.1659
     39 F         143.4981  129.2828  157.6542 F       1  UNL1       -0.1659
     40 F         145.0585  131.8310  157.9215 F       1  UNL1       -0.1659
@<TRIPOS>BOND
     1    22    23    2
     2    23    26    1
     3    26    27    1
     4    27    28   am
     5    28    29    2
     6    28    31    1
     7    31    32   ar
     8    32    33   ar
     9    33    34   ar
    10    34    35   ar
    11    35    37    1
    12    37    38    1
    13    37    39    1
    14    37    40    1
    15    35    36   ar
    16    23    24   am
    17    24     1    1
    18     1     2    1
    19     2     3    1
    20     5     3    1
    21     5     6    1
    22     6     7    1
    23     7     8    1
    24     8     9    1
    25     8    13    1
    26    13    14   ar
    27    14    15   ar
    28    15    16   ar
    29    16    17   ar
    30    17    18   ar
    31    17    19    1
    32    19    20    1
    33    20    21    1
    34     8    10    1
    35    10    11    1
    36     3     4    1
    37    36    31   ar
    38     4     1    1
    39    11     5    1
    40    18    13   ar
    41    21    16    1
    42    27    30    1
    43    24    25    1
    44     9    12    1
@<TRIPOS>MOLECULE
*****
 40 44 0 0 0
SMALL
GASTEIGER

@<TRIPOS>ATOM
      1 C         141.8025  142.1742  160.6202 C.3     1  UNL1        0.1035
      2 C         140.6936  143.1694  160.4475 C.3     1  UNL1        0.0933
      3 N         141.0690  143.3373  159.0050 N.3     1  UNL1       -0.2711
      4 C         142.1780  142.3421  159.1777 C.3     1  UNL1        0.0933
      5 C         140.5503  144.1597  157.8628 C.3     1  UNL1        0.0578
      6 C         139.7194  143.5167  156.7922 C.3     1  UNL1        0.0187
      7 C         139.2007  144.3393  155.6500 C.3     1  UNL1        0.0325
      8 C         139.5129  145.8046  155.5785 C.3     1  UNL1        0.1071
      9 O         138.6913  145.6522  154.3328 O.3     1  UNL1       -0.3827
     10 C         140.3438  146.4476  156.6491 C.3     1  UNL1        0.0325
     11 C         140.8625  145.6252  157.7912 C.3     1  UNL1        0.0187
     12 H         138.4092  144.7285  154.2425 H       1  UNL1        0.2107
     13 C         139.5398  147.2171  155.0743 C.ar    1  UNL1        0.0049
     14 C         140.3529  147.5658  153.8631 C.ar    1  UNL1        0.0013
     15 C         140.3798  148.9782  153.3589 C.ar    1  UNL1        0.0399
     16 C         139.5935  150.0421  154.0660 C.ar    1  UNL1        0.1764
     17 C         138.7804  149.6935  155.2773 C.ar    1  UNL1        0.1762
     18 C         138.7535  148.2810  155.7815 C.ar    1  UNL1        0.0381
     19 O         138.1121  150.9454  155.7631 O.3     1  UNL1       -0.4346
     20 C         138.5123  152.0678  154.8520 C.3     1  UNL1        0.4294
     21 O         139.4278  151.5095  153.8031 O.3     1  UNL1       -0.4346
     22 O         144.3036  143.0058  162.0533 O.2     1  UNL1       -0.2733
     23 C         143.5717  141.7676  162.4788 C.2     1  UNL1        0.2426
     24 N         142.3213  141.3517  161.7624 N.am    1  UNL1       -0.3018
     25 H         141.8410  140.5390  162.0418 H       1  UNL1        0.1495
     26 C         144.0905  140.9451  163.6210 C.3     1  UNL1        0.1759
     27 N         143.5769  141.1822  165.0101 N.am    1  UNL1       -0.2931
     28 C         142.2321  140.6536  165.4131 C.2     1  UNL1        0.2462
     29 O         141.4010  139.8878  164.4267 O.2     1  UNL1       -0.2701
     30 H         144.1223  141.6849  165.6575 H       1  UNL1        0.1502
     31 C         141.7185  140.8909  166.8022 C.ar    1  UNL1        0.0533
     32 C         140.4330  140.2572  167.2451 C.ar    1  UNL1        0.0045
     33 C         139.9194  140.4944  168.6343 C.ar    1  UNL1        0.0001
     34 C         140.6913  141.3654  169.5807 C.ar    1  UNL1        0.0039
     35 C         141.9767  141.9991  169.1378 C.ar    1  UNL1        0.0716
     36 C         142.4903  141.7618  167.7486 C.ar    1  UNL1        0.0084
     37 C         142.7486  142.8701  170.0842 C.3     1  UNL1        0.4186
     38 F         143.5204  143.7411  171.0306 F       1  UNL1       -0.1659
     39 F         141.6265  143.8655  170.0832 F       1  UNL1       -0.1659
     40 F         143.8706  141.8746  170.0852 F       1  UNL1       -0.1659
@<TRIPOS>BOND
     1    22    23    2
     2    23    26    1
     3    26    27    1
     4    27    28   am
     5    28    29    2
     6    28    31    1
     7    31    32   ar
     8    32    33   ar
     9    33    34   ar
    10    34    35   ar
    11    35    37    1
    12    37    38    1
    13    37    39    1
    14    37    40    1
    15    35    36   ar
    16    23    24   am
    17    24     1    1
    18     1     2    1
    19     2     3    1
    20     5     3    1
    21     5     6    1
    22     6     7    1
    23     7     8    1
    24     8     9    1
    25     8    13    1
    26    13    14   ar
    27    14    15   ar
    28    15    16   ar
    29    16    17   ar
    30    17    18   ar
    31    17    19    1
    32    19    20    1
    33    20    21    1
    34     8    10    1
    35    10    11    1
    36     3     4    1
    37    36    31   ar
    38     4     1    1
    39    11     5    1
    40    18    13   ar
    41    21    16    1
    42    27    30    1
    43    24    25    1
    44     9    12    1
@<TRIPOS>MOLECULE
*****
 40 44 0 0 0
SMALL
GASTEIGER

@<TRIPOS>ATOM
      1 C         140.5890  144.8106  158.8099 C.3     1  UNL1        0.1035
      2 C         141.6876  143.8762  159.2219 C.3     1  UNL1        0.0933
      3 N         141.4536  144.2350  160.6595 N.3     1  UNL1       -0.2711
      4 C         140.3549  145.1695  160.2474 C.3     1  UNL1        0.0933
      5 C         142.0649  143.8281  161.9674 C.3     1  UNL1        0.0578
      6 C         143.1923  144.6282  162.5495 C.3     1  UNL1        0.0187
      7 C         143.8037  144.2211  163.8575 C.3     1  UNL1        0.0325
      8 C         143.2876  143.0141  164.5832 C.3     1  UNL1        0.1071
      9 O         144.3658  143.4472  165.5318 O.3     1  UNL1       -0.3827
     10 C         142.1602  142.2141  164.0011 C.3     1  UNL1        0.0325
     11 C         141.5488  142.6210  162.6932 C.3     1  UNL1        0.0187
     12 H         144.8018  144.2413  165.1850 H       1  UNL1        0.2107
     13 C         143.1460  141.9575  165.6385 C.ar    1  UNL1        0.0049
     14 C         143.1777  140.5073  165.2567 C.ar    1  UNL1        0.0013
     15 C         143.0360  139.4507  166.3119 C.ar    1  UNL1        0.0399
     16 C         142.8627  139.8443  167.7489 C.ar    1  UNL1        0.1764
     17 C         142.8310  141.2946  168.1307 C.ar    1  UNL1        0.1762
     18 C         142.9726  142.3512  167.0755 C.ar    1  UNL1        0.0381
     19 O         142.6483  141.3787  169.6172 O.3     1  UNL1       -0.4346
     20 C         142.5671  139.9805  170.1541 C.3     1  UNL1        0.4294
     21 O         142.6996  139.0321  168.9994 O.3     1  UNL1       -0.4346
     22 O         138.9276  142.8538  157.2571 O.2     1  UNL1       -0.2733
     23 C         139.1470  144.2392  156.7256 C.2     1  UNL1        0.2426
     24 N         139.9776  145.2176  157.5019 N.am    1  UNL1       -0.3018
     25 H         140.1215  146.1269  157.1530 H       1  UNL1        0.1495
     26 C         138.5356  144.6462  155.4177 C.3     1  UNL1        0.1759
     27 N         138.6806  146.0567  154.9286 N.am    1  UNL1       -0.2931
     28 C         140.0042  146.5399  154.4141 C.2     1  UNL1        0.2462
     29 O         141.1828  145.6123  154.3886 O.2     1  UNL1       -0.2701
     30 H         137.9070  146.6655  154.9454 H       1  UNL1        0.1502
     31 C         140.1491  147.9505  153.9251 C.ar    1  UNL1        0.0533
     32 C         140.9661  148.2397  152.7007 C.ar    1  UNL1        0.0045
     33 C         141.1110  149.6503  152.2117 C.ar    1  UNL1        0.0001
     34 C         140.4389  150.7718  152.9470 C.ar    1  UNL1        0.0039
     35 C         139.6220  150.4825  154.1714 C.ar    1  UNL1        0.0716
     36 C         139.4771  149.0719  154.6604 C.ar    1  UNL1        0.0084
     37 C         138.9500  151.6040  154.9067 C.3     1  UNL1        0.4186
     38 F         138.2779  152.7255  155.6420 F       1  UNL1       -0.1659
     39 F         139.8038  152.5960  154.1741 F       1  UNL1       -0.1659
     40 F         138.0961  150.6119  155.6392 F       1  UNL1       -0.1659
@<TRIPOS>BOND
     1    22    23    2
     2    23    26    1
     3    26    27    1
     4    27    28   am
     5    28    29    2
     6    28    31    1
     7    31    32   ar
     8    32    33   ar
     9    33    34   ar
    10    34    35   ar
    11    35    37    1
    12    37    38    1
    13    37    39    1
    14    37    40    1
    15    35    36   ar
    16    23    24   am
    17    24     1    1
    18     1     2    1
    19     2     3    1
    20     5     3    1
    21     5     6    1
    22     6     7    1
    23     7     8    1
    24     8     9    1
    25     8    13    1
    26    13    14   ar
    27    14    15   ar
    28    15    16   ar
    29    16    17   ar
    30    17    18   ar
    31    17    19    1
    32    19    20    1
    33    20    21    1
    34     8    10    1
    35    10    11    1
    36     3     4    1
    37    36    31   ar
    38     4     1    1
    39    11     5    1
    40    18    13   ar
    41    21    16    1
    42    27    30    1
    43    24    25    1
    44     9    12    1
@<TRIPOS>MOLECULE
*****
 40 44 0 0 0
SMALL
GASTEIGER

@<TRIPOS>ATOM
      1 C         141.9411  142.3866  160.8058 C.3     1  UNL1        0.1035
      2 C         141.6537  142.0934  159.3631 C.3     1  UNL1        0.0933
      3 N         141.1564  143.4963  159.1771 N.3     1  UNL1       -0.2711
      4 C         141.4438  143.7895  160.6199 C.3     1  UNL1        0.0933
      5 C         140.6015  144.2810  158.0255 C.3     1  UNL1        0.0578
      6 C         139.6931  143.6166  157.0337 C.3     1  UNL1        0.0187
      7 C         139.1382  144.4014  155.8820 C.3     1  UNL1        0.0325
      8 C         139.4916  145.8503  155.7222 C.3     1  UNL1        0.1071
      9 O         138.5983  145.6672  154.5312 O.3     1  UNL1       -0.3827
     10 C         140.4000  146.5147  156.7140 C.3     1  UNL1        0.0325
     11 C         140.9549  145.7300  157.8656 C.3     1  UNL1        0.0187
     12 H         138.2830  144.7503  154.5015 H       1  UNL1        0.2107
     13 C         139.5348  147.2358  155.1487 C.ar    1  UNL1        0.0049
     14 C         140.3557  147.5157  153.9250 C.ar    1  UNL1        0.0013
     15 C         140.3989  148.9011  153.3515 C.ar    1  UNL1        0.0399
     16 C         139.6211  150.0065  154.0018 C.ar    1  UNL1        0.1764
     17 C         138.8001  149.7266  155.2256 C.ar    1  UNL1        0.1762
     18 C         138.7569  148.3413  155.7991 C.ar    1  UNL1        0.0381
     19 O         138.1430  151.0078  155.6460 O.3     1  UNL1       -0.4346
     20 C         138.5579  152.0795  154.6820 C.3     1  UNL1        0.4294
     21 O         139.4714  151.4607  153.6658 O.3     1  UNL1       -0.4346
     22 O         144.8801  142.4726  161.4021 O.2     1  UNL1       -0.2733
     23 C         143.9655  141.6449  162.2556 C.2     1  UNL1        0.2426
     24 N         142.4961  141.6019  161.9575 N.am    1  UNL1       -0.3018
     25 H         141.8959  141.0587  162.5177 H       1  UNL1        0.1495
     26 C         144.5204  140.8602  163.4074 C.3     1  UNL1        0.1759
     27 N         143.6156  140.4180  164.5189 N.am    1  UNL1       -0.2931
     28 C         143.2318  141.3820  165.6022 C.2     1  UNL1        0.2462
     29 O         143.7530  142.7883  165.5739 O.2     1  UNL1       -0.2701
     30 H         143.2736  139.4950  164.5374 H       1  UNL1        0.1502
     31 C         142.3270  140.9396  166.7137 C.ar    1  UNL1        0.0533
     32 C         142.7821  141.0466  168.1390 C.ar    1  UNL1        0.0045
     33 C         141.8772  140.6043  169.2505 C.ar    1  UNL1        0.0001
     34 C         140.5171  140.0548  168.9368 C.ar    1  UNL1        0.0039
     35 C         140.0620  139.9478  167.5115 C.ar    1  UNL1        0.0716
     36 C         140.9670  140.3902  166.3999 C.ar    1  UNL1        0.0084
     37 C         138.7020  139.3984  167.1977 C.3     1  UNL1        0.4186
     38 F         137.3420  138.8490  166.8838 F       1  UNL1       -0.1659
     39 F         139.0709  139.3143  165.7462 F       1  UNL1       -0.1659
     40 F         138.3332  139.4825  168.6492 F       1  UNL1       -0.1659
@<TRIPOS>BOND
     1    22    23    2
     2    23    26    1
     3    26    27    1
     4    27    28   am
     5    28    29    2
     6    28    31    1
     7    31    32   ar
     8    32    33   ar
     9    33    34   ar
    10    34    35   ar
    11    35    37    1
    12    37    38    1
    13    37    39    1
    14    37    40    1
    15    35    36   ar
    16    23    24   am
    17    24     1    1
    18     1     2    1
    19     2     3    1
    20     5     3    1
    21     5     6    1
    22     6     7    1
    23     7     8    1
    24     8     9    1
    25     8    13    1
    26    13    14   ar
    27    14    15   ar
    28    15    16   ar
    29    16    17   ar
    30    17    18   ar
    31    17    19    1
    32    19    20    1
    33    20    21    1
    34     8    10    1
    35    10    11    1
    36     3     4    1
    37    36    31   ar
    38     4     1    1
    39    11     5    1
    40    18    13   ar
    41    21    16    1
    42    27    30    1
    43    24    25    1
    44     9    12    1
@<TRIPOS>MOLECULE
*****
 40 44 0 0 0
SMALL
GASTEIGER

@<TRIPOS>ATOM
      1 C         142.1451  138.2918  159.1075 C.3     1  UNL1        0.1035
      2 C         141.0058  138.6816  160.0018 C.3     1  UNL1        0.0933
      3 N         141.9655  139.3776  160.9209 N.3     1  UNL1       -0.2711
      4 C         143.1048  138.9878  160.0265 C.3     1  UNL1        0.0933
      5 C         141.8385  140.1454  162.2032 C.3     1  UNL1        0.0578
      6 C         141.5870  141.6238  162.1703 C.3     1  UNL1        0.0187
      7 C         141.4600  142.3917  163.4527 C.3     1  UNL1        0.0325
      8 C         141.5844  141.6811  164.7678 C.3     1  UNL1        0.1071
      9 O         141.3476  143.0816  165.2498 O.3     1  UNL1       -0.3827
     10 C         141.8359  140.2026  164.8006 C.3     1  UNL1        0.0325
     11 C         141.9629  139.4348  163.5184 C.3     1  UNL1        0.0187
     12 H         141.2450  143.6729  164.4877 H       1  UNL1        0.2107
     13 C         141.6266  141.4568  166.2504 C.ar    1  UNL1        0.0049
     14 C         142.8043  141.9333  167.0477 C.ar    1  UNL1        0.0013
     15 C         142.8466  141.7091  168.5303 C.ar    1  UNL1        0.0399
     16 C         141.7110  141.0084  169.2154 C.ar    1  UNL1        0.1764
     17 C         140.5332  140.5320  168.4181 C.ar    1  UNL1        0.1762
     18 C         140.4909  140.7562  166.9356 C.ar    1  UNL1        0.0381
     19 O         139.5688  139.8769  169.3620 O.3     1  UNL1       -0.4346
     20 C         140.1506  139.9485  170.7427 C.3     1  UNL1        0.4294
     21 O         141.4745  140.6478  170.6521 O.3     1  UNL1       -0.4346
     22 O         139.7325  137.8448  157.3812 O.2     1  UNL1       -0.2733
     23 C         141.0659  137.3005  156.9621 C.2     1  UNL1        0.2426
     24 N         142.2722  137.5239  157.8251 N.am    1  UNL1       -0.3018
     25 H         143.1473  137.1666  157.5499 H       1  UNL1        0.1495
     26 C         141.1930  136.5326  155.6797 C.3     1  UNL1        0.1759
     27 N         141.4479  135.0549  155.7124 N.am    1  UNL1       -0.2931
     28 C         142.8471  134.5385  155.8731 C.2     1  UNL1        0.2462
     29 O         143.9913  135.5000  156.0010 O.2     1  UNL1       -0.2701
     30 H         140.6969  134.4239  155.6285 H       1  UNL1        0.1502
     31 C         143.1019  133.0607  155.9058 C.ar    1  UNL1        0.0533
     32 C         144.4717  132.5428  156.2306 C.ar    1  UNL1        0.0045
     33 C         144.7265  131.0650  156.2634 C.ar    1  UNL1        0.0001
     34 C         143.6115  130.1050  155.9713 C.ar    1  UNL1        0.0039
     35 C         142.2418  130.6229  155.6465 C.ar    1  UNL1        0.0716
     36 C         141.9869  132.1008  155.6138 C.ar    1  UNL1        0.0084
     37 C         141.1268  129.6630  155.3544 C.3     1  UNL1        0.4186
     38 F         140.0118  128.7029  155.0624 F       1  UNL1       -0.1659
     39 F         142.0073  128.5175  155.7577 F       1  UNL1       -0.1659
     40 F         140.2463  130.8084  154.9512 F       1  UNL1       -0.1659
@<TRIPOS>BOND
     1    22    23    2
     2    23    26    1
     3    26    27    1
     4    27    28   am
     5    28    29    2
     6    28    31    1
     7    31    32   ar
     8    32    33   ar
     9    33    34   ar
    10    34    35   ar
    11    35    37    1
    12    37    38    1
    13    37    39    1
    14    37    40    1
    15    35    36   ar
    16    23    24   am
    17    24     1    1
    18     1     2    1
    19     2     3    1
    20     5     3    1
    21     5     6    1
    22     6     7    1
    23     7     8    1
    24     8     9    1
    25     8    13    1
    26    13    14   ar
    27    14    15   ar
    28    15    16   ar
    29    16    17   ar
    30    17    18   ar
    31    17    19    1
    32    19    20    1
    33    20    21    1
    34     8    10    1
    35    10    11    1
    36     3     4    1
    37    36    31   ar
    38     4     1    1
    39    11     5    1
    40    18    13   ar
    41    21    16    1
    42    27    30    1
    43    24    25    1
    44     9    12    1
