@<TRIPOS>MOLECULE
*****
 42 45 0 0 0
SMALL
GASTEIGER

@<TRIPOS>ATOM
      1 C         143.7087  141.7903  162.7950 C.3     1  UNL1        0.0925
      2 C         144.5028  141.0971  161.7278 C.3     1  UNL1        0.0123
      3 C         144.1466  141.7165  160.4090 C.3     1  UNL1        0.0165
      4 C         143.1324  142.7926  160.6610 C.3     1  UNL1        0.0581
      5 C         142.8618  142.8382  162.1357 C.3     1  UNL1        0.0268
      6 N         142.4999  143.6691  159.6210 N.3     1  UNL1       -0.2739
      7 C         141.3865  144.5997  160.0006 C.3     1  UNL1        0.0724
      8 C         140.7540  145.4762  158.9606 C.3     1  UNL1        0.0233
      9 C         141.2350  145.4221  157.5408 C.3     1  UNL1        0.0432
     10 C         142.3485  144.4915  157.1612 C.3     1  UNL1        0.0233
     11 C         142.9810  143.6150  158.2012 C.3     1  UNL1        0.0724
     12 C         140.6025  146.2987  156.5008 C.ar    1  UNL1        0.0628
     13 C         141.1267  146.2928  155.0954 C.ar    1  UNL1        0.0455
     14 C         140.4942  147.1694  154.0554 C.ar    1  UNL1        0.1413
     15 CL        141.0184  147.1636  152.6500 Cl      1  UNL1       -0.0612
     16 N         139.3375  148.0517  154.4208 N.ar    1  UNL1       -0.2124
     17 C         138.8133  148.0575  155.8263 C.ar    1  UNL1        0.1993
     18 N         139.4458  147.1810  156.8663 N.ar    1  UNL1       -0.2283
     19 C         143.1778  140.0132  163.8245 C.3     1  UNL1        0.0298
     20 C         144.4207  140.8462  163.7178 C.3     1  UNL1        0.0961
     21 C         145.6611  141.3679  163.8256 C.3     1  UNL1        0.0298
     22 O         145.1327  139.9019  164.6406 O.3     1  UNL1       -0.3863
     23 H         146.0439  140.2062  164.7745 H       1  UNL1        0.2102
     24 C         143.0634  142.2861  164.0550 C.2     1  UNL1        0.2240
     25 O         143.8765  142.4309  165.3072 O.2     1  UNL1       -0.2750
     26 N         141.6051  142.6372  164.0630 N.am    1  UNL1       -0.3004
     27 H         141.0714  142.5422  163.2411 H       1  UNL1        0.1497
     28 C         140.9598  143.1330  165.3230 C.3     1  UNL1        0.1163
     29 C         140.4772  142.1555  166.3534 C.ar    1  UNL1       -0.0027
     30 C         140.6836  142.4398  167.8116 C.ar    1  UNL1        0.0012
     31 C         140.2010  141.4622  168.8419 C.ar    1  UNL1        0.0711
     32 C         139.5119  140.2005  168.4139 C.ar    1  UNL1        0.0077
     33 C         139.3056  139.9162  166.9556 C.ar    1  UNL1        0.0711
     34 C         139.7882  140.8937  165.9254 C.ar    1  UNL1        0.0012
     35 C         140.4073  141.7465  170.3002 C.3     1  UNL1        0.4186
     36 F         140.6137  142.0307  171.7585 F       1  UNL1       -0.1659
     37 F         139.6488  143.0326  170.1569 F       1  UNL1       -0.1659
     38 F         141.1658  140.4604  170.4436 F       1  UNL1       -0.1659
     39 C         138.6165  138.6544  166.5276 C.3     1  UNL1        0.4186
     40 F         137.9275  137.3927  166.0996 F       1  UNL1       -0.1659
     41 F         139.6064  138.4922  165.4123 F       1  UNL1       -0.1659
     42 F         137.6267  138.8166  167.6430 F       1  UNL1       -0.1659
@<TRIPOS>BOND
     1    19    20    1
     2    20    21    1
     3    20    22    1
     4     1    20    1
     5     1    24    1
     6    24    25    2
     7    24    26   am
     8    26    28    1
     9    28    29    1
    10    29    30   ar
    11    30    31   ar
    12    31    35    1
    13    35    36    1
    14    35    37    1
    15    35    38    1
    16    31    32   ar
    17    32    33   ar
    18    33    39    1
    19    39    40    1
    20    39    41    1
    21    39    42    1
    22    33    34   ar
    23     1     2    1
    24     2     3    1
    25     3     4    1
    26     4     6    1
    27     6     7    1
    28     7     8    1
    29     8     9    1
    30     9    12    1
    31    12    13   ar
    32    13    14   ar
    33    14    15    1
    34    14    16   ar
    35    16    17   ar
    36    17    18   ar
    37     9    10    1
    38    10    11    1
    39     4     5    1
    40     5     1    1
    41    34    29   ar
    42    11     6    1
    43    18    12   ar
    44    22    23    1
    45    26    27    1
@<TRIPOS>MOLECULE
*****
 42 45 0 0 0
SMALL
GASTEIGER

@<TRIPOS>ATOM
      1 C         140.4053  144.1483  161.1345 C.3     1  UNL1        0.0925
      2 C         141.4427  144.7430  160.2289 C.3     1  UNL1        0.0123
      3 C         141.8986  143.6735  159.2811 C.3     1  UNL1        0.0165
      4 C         141.1431  142.4178  159.6010 C.3     1  UNL1        0.0581
      5 C         140.2202  142.7112  160.7465 C.3     1  UNL1        0.0268
      6 N         141.2854  141.1000  158.8987 N.3     1  UNL1       -0.2739
      7 C         140.2949  140.0030  159.1543 C.3     1  UNL1        0.0724
      8 C         140.4372  138.6853  158.4521 C.3     1  UNL1        0.0233
      9 C         141.5702  138.4644  157.4942 C.3     1  UNL1        0.0432
     10 C         142.5608  139.5615  157.2386 C.3     1  UNL1        0.0233
     11 C         142.4185  140.8793  157.9408 C.3     1  UNL1        0.0724
     12 C         141.7126  137.1466  156.7919 C.ar    1  UNL1        0.0628
     13 C         142.8016  136.1966  157.1935 C.ar    1  UNL1        0.0455
     14 C         142.9440  134.8788  156.4913 C.ar    1  UNL1        0.1413
     15 CL        144.0330  133.9287  156.8928 Cl      1  UNL1       -0.0612
     16 N         141.9973  134.5111  155.3874 N.ar    1  UNL1       -0.2124
     17 C         140.9082  135.4612  154.9857 C.ar    1  UNL1        0.1993
     18 N         140.7658  136.7790  155.6880 N.ar    1  UNL1       -0.2283
     19 C         141.2456  145.0478  162.8622 C.3     1  UNL1        0.0298
     20 C         140.3722  145.5210  161.7383 C.3     1  UNL1        0.0961
     21 C         139.6023  146.2332  160.8884 C.3     1  UNL1        0.0298
     22 O         140.3391  146.8938  162.3421 O.3     1  UNL1       -0.3863
     23 H         139.7994  147.4782  161.7871 H       1  UNL1        0.2102
     24 C         139.3611  143.8406  162.1664 C.2     1  UNL1        0.2240
     25 O         138.2612  144.8240  162.4369 O.2     1  UNL1       -0.2750
     26 N         139.4167  142.5494  162.9279 N.am    1  UNL1       -0.3004
     27 H         140.1386  141.9039  162.7504 H       1  UNL1        0.1497
     28 C         138.3724  142.2416  163.9597 C.3     1  UNL1        0.1163
     29 C         138.7264  141.4183  165.1627 C.ar    1  UNL1       -0.0027
     30 C         138.1319  140.0523  165.3379 C.ar    1  UNL1        0.0012
     31 C         138.4858  139.2291  166.5408 C.ar    1  UNL1        0.0711
     32 C         139.4342  139.7718  167.5684 C.ar    1  UNL1        0.0077
     33 C         140.0287  141.1377  167.3931 C.ar    1  UNL1        0.0711
     34 C         139.6748  141.9610  166.1903 C.ar    1  UNL1        0.0012
     35 C         137.8913  137.8631  166.7160 C.3     1  UNL1        0.4186
     36 F         137.2969  136.4971  166.8914 F       1  UNL1       -0.1659
     37 F         137.0332  138.3798  167.8325 F       1  UNL1       -0.1659
     38 F         138.7494  137.3463  165.5996 F       1  UNL1       -0.1659
     39 C         140.9772  141.6804  168.4208 C.3     1  UNL1        0.4186
     40 F         141.9256  142.2231  169.4484 F       1  UNL1       -0.1659
     41 F         141.6902  140.3612  168.4593 F       1  UNL1       -0.1659
     42 F         140.2641  142.9995  168.3822 F       1  UNL1       -0.1659
@<TRIPOS>BOND
     1    19    20    1
     2    20    21    1
     3    20    22    1
     4     1    20    1
     5     1    24    1
     6    24    25    2
     7    24    26   am
     8    26    28    1
     9    28    29    1
    10    29    30   ar
    11    30    31   ar
    12    31    35    1
    13    35    36    1
    14    35    37    1
    15    35    38    1
    16    31    32   ar
    17    32    33   ar
    18    33    39    1
    19    39    40    1
    20    39    41    1
    21    39    42    1
    22    33    34   ar
    23     1     2    1
    24     2     3    1
    25     3     4    1
    26     4     6    1
    27     6     7    1
    28     7     8    1
    29     8     9    1
    30     9    12    1
    31    12    13   ar
    32    13    14   ar
    33    14    15    1
    34    14    16   ar
    35    16    17   ar
    36    17    18   ar
    37     9    10    1
    38    10    11    1
    39     4     5    1
    40     5     1    1
    41    34    29   ar
    42    11     6    1
    43    18    12   ar
    44    22    23    1
    45    26    27    1
@<TRIPOS>MOLECULE
*****
 42 45 0 0 0
SMALL
GASTEIGER

@<TRIPOS>ATOM
      1 C         139.8570  143.7532  162.8326 C.3     1  UNL1        0.0925
      2 C         139.6526  145.0917  162.1872 C.3     1  UNL1        0.0123
      3 C         140.4943  145.1415  160.9467 C.3     1  UNL1        0.0165
      4 C         141.2189  143.8338  160.8253 C.3     1  UNL1        0.0581
      5 C         140.8250  142.9757  161.9909 C.3     1  UNL1        0.0268
      6 N         142.1703  143.4512  159.7306 N.3     1  UNL1       -0.2739
      7 C         143.4019  142.6572  160.0507 C.3     1  UNL1        0.0724
      8 C         144.3533  142.2746  158.9560 C.3     1  UNL1        0.0233
      9 C         144.0732  142.6861  157.5410 C.3     1  UNL1        0.0432
     10 C         142.8415  143.4802  157.2209 C.3     1  UNL1        0.0233
     11 C         141.8900  143.8628  158.3156 C.3     1  UNL1        0.0724
     12 C         145.0246  142.3036  156.4463 C.ar    1  UNL1        0.0628
     13 C         146.5018  142.2932  156.7062 C.ar    1  UNL1        0.0455
     14 C         147.4533  141.9107  155.6115 C.ar    1  UNL1        0.1413
     15 CL        148.9305  141.9003  155.8713 Cl      1  UNL1       -0.0612
     16 N         146.9274  141.5385  154.2569 N.ar    1  UNL1       -0.2124
     17 C         145.4501  141.5488  153.9970 C.ar    1  UNL1        0.1993
     18 N         144.4986  141.9314  155.0917 N.ar    1  UNL1       -0.2283
     19 C         137.7486  143.9666  162.9295 C.3     1  UNL1        0.0298
     20 C         138.8894  144.2736  163.8539 C.3     1  UNL1        0.0961
     21 C         139.6747  144.6550  164.8835 C.3     1  UNL1        0.0298
     22 O         137.9217  144.7939  164.8752 O.3     1  UNL1       -0.3863
     23 H         138.4086  145.0933  165.6589 H       1  UNL1        0.2102
     24 C         139.8591  142.5235  163.6915 C.2     1  UNL1        0.2240
     25 O         138.5650  141.8490  164.0389 O.2     1  UNL1       -0.2750
     26 N         141.1552  141.9681  164.2030 N.am    1  UNL1       -0.3004
     27 H         142.0045  142.4107  163.9750 H       1  UNL1        0.1497
     28 C         141.1573  140.7384  165.0619 C.3     1  UNL1        0.1163
     29 C         141.3031  140.8628  166.5496 C.ar    1  UNL1       -0.0027
     30 C         140.8728  142.1216  167.2427 C.ar    1  UNL1        0.0012
     31 C         141.0186  142.2460  168.7303 C.ar    1  UNL1        0.0711
     32 C         141.5946  141.1117  169.5250 C.ar    1  UNL1        0.0077
     33 C         142.0249  139.8529  168.8320 C.ar    1  UNL1        0.0711
     34 C         141.8791  139.7285  167.3443 C.ar    1  UNL1        0.0012
     35 C         140.5883  143.5048  169.4235 C.3     1  UNL1        0.4186
     36 F         140.1580  144.7636  170.1165 F       1  UNL1       -0.1659
     37 F         139.9297  143.9750  168.1605 F       1  UNL1       -0.1659
     38 F         141.2469  143.0346  170.6864 F       1  UNL1       -0.1659
     39 C         142.6009  138.7186  169.6266 C.3     1  UNL1        0.4186
     40 F         143.1770  137.5843  170.4213 F       1  UNL1       -0.1659
     41 F         141.9436  139.2522  170.8648 F       1  UNL1       -0.1659
     42 F         143.2583  138.1850  168.3884 F       1  UNL1       -0.1659
@<TRIPOS>BOND
     1    19    20    1
     2    20    21    1
     3    20    22    1
     4     1    20    1
     5     1    24    1
     6    24    25    2
     7    24    26   am
     8    26    28    1
     9    28    29    1
    10    29    30   ar
    11    30    31   ar
    12    31    35    1
    13    35    36    1
    14    35    37    1
    15    35    38    1
    16    31    32   ar
    17    32    33   ar
    18    33    39    1
    19    39    40    1
    20    39    41    1
    21    39    42    1
    22    33    34   ar
    23     1     2    1
    24     2     3    1
    25     3     4    1
    26     4     6    1
    27     6     7    1
    28     7     8    1
    29     8     9    1
    30     9    12    1
    31    12    13   ar
    32    13    14   ar
    33    14    15    1
    34    14    16   ar
    35    16    17   ar
    36    17    18   ar
    37     9    10    1
    38    10    11    1
    39     4     5    1
    40     5     1    1
    41    34    29   ar
    42    11     6    1
    43    18    12   ar
    44    22    23    1
    45    26    27    1
@<TRIPOS>MOLECULE
*****
 42 45 0 0 0
SMALL
GASTEIGER

@<TRIPOS>ATOM
      1 C         140.7057  143.9523  161.1106 C.3     1  UNL1        0.0925
      2 C         141.8230  144.6092  160.3555 C.3     1  UNL1        0.0123
      3 C         142.3976  143.5997  159.4066 C.3     1  UNL1        0.0165
      4 C         141.6355  142.3187  159.5751 C.3     1  UNL1        0.0581
      5 C         140.5899  142.5367  160.6283 C.3     1  UNL1        0.0268
      6 N         141.8767  141.0437  158.8227 N.3     1  UNL1       -0.2739
      7 C         143.0710  140.9176  157.9240 C.3     1  UNL1        0.0724
      8 C         143.3122  139.6426  157.1716 C.3     1  UNL1        0.0233
      9 C         142.3590  138.4937  157.3178 C.3     1  UNL1        0.0432
     10 C         141.1646  138.6198  158.2165 C.3     1  UNL1        0.0233
     11 C         140.9235  139.8948  158.9689 C.3     1  UNL1        0.0724
     12 C         142.6002  137.2187  156.5653 C.ar    1  UNL1        0.0628
     13 C         143.0319  135.9843  157.3002 C.ar    1  UNL1        0.0455
     14 C         143.2731  134.7093  156.5477 C.ar    1  UNL1        0.1413
     15 CL        143.7047  133.4749  157.2825 Cl      1  UNL1       -0.0612
     16 N         143.0826  134.6687  155.0604 N.ar    1  UNL1       -0.2124
     17 C         142.6510  135.9031  154.3255 C.ar    1  UNL1        0.1993
     18 N         142.4098  137.1781  155.0780 N.ar    1  UNL1       -0.2283
     19 C         139.9734  145.8575  160.5327 C.3     1  UNL1        0.0298
     20 C         140.5826  145.2889  161.7800 C.3     1  UNL1        0.0961
     21 C         141.0878  145.0836  163.0149 C.3     1  UNL1        0.0298
     22 O         140.4595  146.6257  162.4494 O.3     1  UNL1       -0.3863
     23 H         140.8044  146.5673  163.3541 H       1  UNL1        0.2102
     24 C         139.5628  143.5747  162.0056 C.2     1  UNL1        0.2240
     25 O         138.3419  144.4438  162.0701 O.2     1  UNL1       -0.2750
     26 N         139.6407  142.3281  162.8362 N.am    1  UNL1       -0.3004
     27 H         140.4420  141.7577  162.7939 H       1  UNL1        0.1497
     28 C         138.4977  141.9505  163.7312 C.3     1  UNL1        0.1163
     29 C         138.7600  141.2209  165.0154 C.ar    1  UNL1       -0.0027
     30 C         139.6257  141.8452  166.0693 C.ar    1  UNL1        0.0012
     31 C         139.8879  141.1155  167.3534 C.ar    1  UNL1        0.0711
     32 C         139.2844  139.7617  167.5835 C.ar    1  UNL1        0.0077
     33 C         138.4187  139.1375  166.5296 C.ar    1  UNL1        0.0711
     34 C         138.1565  139.8671  165.2455 C.ar    1  UNL1        0.0012
     35 C         140.7537  141.7398  168.4074 C.3     1  UNL1        0.4186
     36 F         141.6194  142.3640  169.4613 F       1  UNL1       -0.1659
     37 F         140.9590  142.9382  167.5290 F       1  UNL1       -0.1659
     38 F         140.5484  140.5413  169.2858 F       1  UNL1       -0.1659
     39 C         137.8152  137.7837  166.7597 C.3     1  UNL1        0.4186
     40 F         137.2117  136.4299  166.9898 F       1  UNL1       -0.1659
     41 F         138.6044  137.2361  165.6077 F       1  UNL1       -0.1659
     42 F         137.0260  138.3314  167.9118 F       1  UNL1       -0.1659
@<TRIPOS>BOND
     1    19    20    1
     2    20    21    1
     3    20    22    1
     4     1    20    1
     5     1    24    1
     6    24    25    2
     7    24    26   am
     8    26    28    1
     9    28    29    1
    10    29    30   ar
    11    30    31   ar
    12    31    35    1
    13    35    36    1
    14    35    37    1
    15    35    38    1
    16    31    32   ar
    17    32    33   ar
    18    33    39    1
    19    39    40    1
    20    39    41    1
    21    39    42    1
    22    33    34   ar
    23     1     2    1
    24     2     3    1
    25     3     4    1
    26     4     6    1
    27     6     7    1
    28     7     8    1
    29     8     9    1
    30     9    12    1
    31    12    13   ar
    32    13    14   ar
    33    14    15    1
    34    14    16   ar
    35    16    17   ar
    36    17    18   ar
    37     9    10    1
    38    10    11    1
    39     4     5    1
    40     5     1    1
    41    34    29   ar
    42    11     6    1
    43    18    12   ar
    44    22    23    1
    45    26    27    1
@<TRIPOS>MOLECULE
*****
 42 45 0 0 0
SMALL
GASTEIGER

@<TRIPOS>ATOM
      1 C         138.7796  140.9321  160.4367 C.3     1  UNL1        0.0925
      2 C         139.1080  140.0905  159.2393 C.3     1  UNL1        0.0123
      3 C         139.3340  141.0090  158.0751 C.3     1  UNL1        0.0165
      4 C         139.1453  142.4182  158.5530 C.3     1  UNL1        0.0581
      5 C         138.8027  142.3707  160.0126 C.3     1  UNL1        0.0268
      6 N         139.2762  143.6574  157.7180 N.3     1  UNL1       -0.2739
      7 C         140.0994  144.8104  158.2108 C.3     1  UNL1        0.0724
      8 C         140.2304  146.0496  157.3758 C.3     1  UNL1        0.0233
      9 C         139.5381  146.1358  156.0479 C.3     1  UNL1        0.0432
     10 C         138.7149  144.9827  155.5551 C.3     1  UNL1        0.0233
     11 C         138.5839  143.7436  156.3901 C.3     1  UNL1        0.0724
     12 C         139.6691  147.3750  155.2129 C.ar    1  UNL1        0.0628
     13 C         139.0187  148.6513  155.6579 C.ar    1  UNL1        0.0455
     14 C         139.1497  149.8905  154.8228 C.ar    1  UNL1        0.1413
     15 CL        138.4994  151.1669  155.2677 Cl      1  UNL1       -0.0612
     16 N         139.9309  149.8534  153.5429 N.ar    1  UNL1       -0.2124
     17 C         140.5813  148.5769  153.0979 C.ar    1  UNL1        0.1993
     18 N         140.4504  147.3377  153.9330 N.ar    1  UNL1       -0.2283
     19 C         137.2909  139.4315  160.6152 C.3     1  UNL1        0.0298
     20 C         138.6837  139.6117  161.1420 C.3     1  UNL1        0.0961
     21 C         139.8790  139.4815  161.7557 C.3     1  UNL1        0.0298
     22 O         138.5877  138.2913  161.8473 O.3     1  UNL1       -0.3863
     23 H         139.4162  138.1166  162.3206 H       1  UNL1        0.2102
     24 C         138.4312  141.4976  161.7816 C.2     1  UNL1        0.2240
     25 O         137.0227  141.4101  162.2900 O.2     1  UNL1       -0.2750
     26 N         139.4913  142.1508  162.6181 N.am    1  UNL1       -0.3004
     27 H         140.4158  142.2082  162.2844 H       1  UNL1        0.1497
     28 C         139.1429  142.7163  163.9630 C.3     1  UNL1        0.1163
     29 C         139.3079  141.8770  165.1952 C.ar    1  UNL1       -0.0027
     30 C         140.1146  142.3913  166.3505 C.ar    1  UNL1        0.0012
     31 C         140.2796  141.5519  167.5827 C.ar    1  UNL1        0.0711
     32 C         139.6379  140.1983  167.6595 C.ar    1  UNL1        0.0077
     33 C         138.8312  139.6840  166.5043 C.ar    1  UNL1        0.0711
     34 C         138.6662  140.5233  165.2721 C.ar    1  UNL1        0.0012
     35 C         141.0863  142.0662  168.7380 C.3     1  UNL1        0.4186
     36 F         141.8930  142.5805  169.8933 F       1  UNL1       -0.1659
     37 F         140.3214  143.3559  168.6980 F       1  UNL1       -0.1659
     38 F         141.8512  140.7766  168.7781 F       1  UNL1       -0.1659
     39 C         138.1895  138.3304  166.5811 C.3     1  UNL1        0.4186
     40 F         137.5478  136.9768  166.6580 F       1  UNL1       -0.1659
     41 F         137.4051  138.7704  167.7816 F       1  UNL1       -0.1659
     42 F         138.9739  137.8903  165.3807 F       1  UNL1       -0.1659
@<TRIPOS>BOND
     1    19    20    1
     2    20    21    1
     3    20    22    1
     4     1    20    1
     5     1    24    1
     6    24    25    2
     7    24    26   am
     8    26    28    1
     9    28    29    1
    10    29    30   ar
    11    30    31   ar
    12    31    35    1
    13    35    36    1
    14    35    37    1
    15    35    38    1
    16    31    32   ar
    17    32    33   ar
    18    33    39    1
    19    39    40    1
    20    39    41    1
    21    39    42    1
    22    33    34   ar
    23     1     2    1
    24     2     3    1
    25     3     4    1
    26     4     6    1
    27     6     7    1
    28     7     8    1
    29     8     9    1
    30     9    12    1
    31    12    13   ar
    32    13    14   ar
    33    14    15    1
    34    14    16   ar
    35    16    17   ar
    36    17    18   ar
    37     9    10    1
    38    10    11    1
    39     4     5    1
    40     5     1    1
    41    34    29   ar
    42    11     6    1
    43    18    12   ar
    44    22    23    1
    45    26    27    1
@<TRIPOS>MOLECULE
*****
 42 45 0 0 0
SMALL
GASTEIGER

@<TRIPOS>ATOM
      1 C         138.7450  140.9325  160.4467 C.3     1  UNL1        0.0925
      2 C         139.0192  140.0773  159.2453 C.3     1  UNL1        0.0123
      3 C         139.2407  140.9845  158.0714 C.3     1  UNL1        0.0165
      4 C         139.1033  142.4003  158.5473 C.3     1  UNL1        0.0581
      5 C         138.7969  142.3681  160.0154 C.3     1  UNL1        0.0268
      6 N         139.2470  143.6320  157.7034 N.3     1  UNL1       -0.2739
      7 C         140.0660  144.7878  158.1967 C.3     1  UNL1        0.0724
      8 C         140.2097  146.0196  157.3528 C.3     1  UNL1        0.0233
      9 C         139.5345  146.0955  156.0156 C.3     1  UNL1        0.0432
     10 C         138.7155  144.9396  155.5222 C.3     1  UNL1        0.0233
     11 C         138.5718  143.7079  156.3661 C.3     1  UNL1        0.0724
     12 C         139.6783  147.3272  155.1717 C.ar    1  UNL1        0.0628
     13 C         139.0307  148.6103  155.6011 C.ar    1  UNL1        0.0455
     14 C         139.1745  149.8420  154.7572 C.ar    1  UNL1        0.1413
     15 CL        138.5270  151.1251  155.1865 Cl      1  UNL1       -0.0612
     16 N         139.9657  149.7907  153.4839 N.ar    1  UNL1       -0.2124
     17 C         140.6133  148.5075  153.0544 C.ar    1  UNL1        0.1993
     18 N         140.4695  147.2758  153.8983 N.ar    1  UNL1       -0.2283
     19 C         137.2387  139.4497  160.6274 C.3     1  UNL1        0.0298
     20 C         138.6307  139.6181  161.1604 C.3     1  UNL1        0.0961
     21 C         139.8212  139.4789  161.7813 C.3     1  UNL1        0.0298
     22 O         138.5163  138.3037  161.8741 O.3     1  UNL1       -0.3863
     23 H         139.3403  138.1230  162.3530 H       1  UNL1        0.2102
     24 C         138.4468  141.5128  161.7973 C.2     1  UNL1        0.2240
     25 O         137.0538  141.4493  162.3501 O.2     1  UNL1       -0.2750
     26 N         139.5417  142.1568  162.5953 N.am    1  UNL1       -0.3004
     27 H         140.4560  142.1984  162.2325 H       1  UNL1        0.1497
     28 C         139.2436  142.7371  163.9459 C.3     1  UNL1        0.1163
     29 C         139.3797  141.8870  165.1743 C.ar    1  UNL1       -0.0027
     30 C         138.7337  140.5342  165.2255 C.ar    1  UNL1        0.0012
     31 C         138.8698  139.6841  166.4538 C.ar    1  UNL1        0.0711
     32 C         139.6520  140.1868  167.6309 C.ar    1  UNL1        0.0077
     33 C         140.2980  141.5395  167.5796 C.ar    1  UNL1        0.0711
     34 C         140.1619  142.3896  166.3513 C.ar    1  UNL1        0.0012
     35 C         138.2237  138.3313  166.5050 C.3     1  UNL1        0.4186
     36 F         137.5777  136.9786  166.5563 F       1  UNL1       -0.1659
     37 F         139.0731  137.8821  165.3533 F       1  UNL1       -0.1659
     38 F         137.3743  138.7806  167.6568 F       1  UNL1       -0.1659
     39 C         141.0802  142.0422  168.7567 C.3     1  UNL1        0.4186
     40 F         141.8624  142.5448  169.9338 F       1  UNL1       -0.1659
     41 F         140.2124  143.2644  168.8115 F       1  UNL1       -0.1659
     42 F         141.9481  140.8200  168.7019 F       1  UNL1       -0.1659
@<TRIPOS>BOND
     1    19    20    1
     2    20    21    1
     3    20    22    1
     4     1    20    1
     5     1    24    1
     6    24    25    2
     7    24    26   am
     8    26    28    1
     9    28    29    1
    10    29    30   ar
    11    30    31   ar
    12    31    35    1
    13    35    36    1
    14    35    37    1
    15    35    38    1
    16    31    32   ar
    17    32    33   ar
    18    33    39    1
    19    39    40    1
    20    39    41    1
    21    39    42    1
    22    33    34   ar
    23     1     2    1
    24     2     3    1
    25     3     4    1
    26     4     6    1
    27     6     7    1
    28     7     8    1
    29     8     9    1
    30     9    12    1
    31    12    13   ar
    32    13    14   ar
    33    14    15    1
    34    14    16   ar
    35    16    17   ar
    36    17    18   ar
    37     9    10    1
    38    10    11    1
    39     4     5    1
    40     5     1    1
    41    34    29   ar
    42    11     6    1
    43    18    12   ar
    44    22    23    1
    45    26    27    1
@<TRIPOS>MOLECULE
*****
 42 45 0 0 0
SMALL
GASTEIGER

@<TRIPOS>ATOM
      1 C         139.7877  143.7265  162.9558 C.3     1  UNL1        0.0925
      2 C         139.5847  145.0405  162.2615 C.3     1  UNL1        0.0123
      3 C         140.5016  145.0845  161.0752 C.3     1  UNL1        0.0165
      4 C         141.2713  143.7976  161.0363 C.3     1  UNL1        0.0581
      5 C         140.8300  142.9583  162.1986 C.3     1  UNL1        0.0268
      6 N         142.3013  143.4169  160.0145 N.3     1  UNL1       -0.2739
      7 C         142.1547  143.8769  158.5943 C.3     1  UNL1        0.0724
      8 C         143.1848  143.4962  157.5725 C.3     1  UNL1        0.0233
      9 C         144.3614  142.6554  157.9708 C.3     1  UNL1        0.0432
     10 C         144.5079  142.1954  159.3911 C.3     1  UNL1        0.0233
     11 C         143.4779  142.5761  160.4129 C.3     1  UNL1        0.0724
     12 C         145.3914  142.2747  156.9490 C.ar    1  UNL1        0.0628
     13 C         144.9943  141.4683  155.7482 C.ar    1  UNL1        0.0455
     14 C         146.0243  141.0876  154.7264 C.ar    1  UNL1        0.1413
     15 CL        145.6272  140.2812  153.5256 Cl      1  UNL1       -0.0612
     16 N         147.4514  141.5132  154.9054 N.ar    1  UNL1       -0.2124
     17 C         147.8486  142.3197  156.1063 C.ar    1  UNL1        0.1993
     18 N         146.8186  142.7004  157.1281 N.ar    1  UNL1       -0.2283
     19 C         137.6757  143.9156  162.8965 C.3     1  UNL1        0.0298
     20 C         138.7421  144.2424  163.8995 C.3     1  UNL1        0.0961
     21 C         139.4456  144.6402  164.9808 C.3     1  UNL1        0.0298
     22 O         137.6964  144.7584  164.8431 O.3     1  UNL1       -0.3863
     23 H         138.1212  145.0689  165.6580 H       1  UNL1        0.2102
     24 C         139.7721  142.5203  163.8473 C.2     1  UNL1        0.2240
     25 O         138.4660  141.9523  164.3180 O.2     1  UNL1       -0.2750
     26 N         141.0627  141.8820  164.2682 N.am    1  UNL1       -0.3004
     27 H         141.9200  142.2548  163.9593 H       1  UNL1        0.1497
     28 C         141.0471  140.6758  165.1597 C.3     1  UNL1        0.1163
     29 C         141.2584  140.8320  166.6366 C.ar    1  UNL1       -0.0027
     30 C         141.8071  139.6907  167.4405 C.ar    1  UNL1        0.0012
     31 C         142.0184  139.8468  168.9173 C.ar    1  UNL1        0.0711
     32 C         141.6810  141.1443  169.5902 C.ar    1  UNL1        0.0077
     33 C         141.1323  142.2856  168.7862 C.ar    1  UNL1        0.0711
     34 C         140.9211  142.1294  167.3095 C.ar    1  UNL1        0.0012
     35 C         142.5671  138.7055  169.7213 C.3     1  UNL1        0.4186
     36 F         143.1158  137.5642  170.5252 F       1  UNL1       -0.1659
     37 F         143.2782  138.1906  168.5051 F       1  UNL1       -0.1659
     38 F         141.8560  139.2203  170.9375 F       1  UNL1       -0.1659
     39 C         140.7950  143.5831  169.4591 C.3     1  UNL1        0.4186
     40 F         140.4576  144.8806  170.1319 F       1  UNL1       -0.1659
     41 F         139.8750  143.9312  168.3266 F       1  UNL1       -0.1659
     42 F         141.7149  143.2350  170.5916 F       1  UNL1       -0.1659
@<TRIPOS>BOND
     1    19    20    1
     2    20    21    1
     3    20    22    1
     4     1    20    1
     5     1    24    1
     6    24    25    2
     7    24    26   am
     8    26    28    1
     9    28    29    1
    10    29    30   ar
    11    30    31   ar
    12    31    35    1
    13    35    36    1
    14    35    37    1
    15    35    38    1
    16    31    32   ar
    17    32    33   ar
    18    33    39    1
    19    39    40    1
    20    39    41    1
    21    39    42    1
    22    33    34   ar
    23     1     2    1
    24     2     3    1
    25     3     4    1
    26     4     6    1
    27     6     7    1
    28     7     8    1
    29     8     9    1
    30     9    12    1
    31    12    13   ar
    32    13    14   ar
    33    14    15    1
    34    14    16   ar
    35    16    17   ar
    36    17    18   ar
    37     9    10    1
    38    10    11    1
    39     4     5    1
    40     5     1    1
    41    34    29   ar
    42    11     6    1
    43    18    12   ar
    44    22    23    1
    45    26    27    1
@<TRIPOS>MOLECULE
*****
 42 45 0 0 0
SMALL
GASTEIGER

@<TRIPOS>ATOM
      1 C         143.5313  142.8927  163.4008 C.3     1  UNL1        0.0925
      2 C         144.1449  143.6986  162.2945 C.3     1  UNL1        0.0123
      3 C         144.0830  142.8826  161.0374 C.3     1  UNL1        0.0165
      4 C         143.4312  141.5724  161.3668 C.3     1  UNL1        0.0581
      5 C         143.0902  141.5787  162.8275 C.3     1  UNL1        0.0268
      6 N         143.1668  140.4526  160.4045 N.3     1  UNL1       -0.2739
      7 C         142.9983  139.0513  160.9124 C.3     1  UNL1        0.0724
      8 C         142.7339  137.9315  159.9501 C.3     1  UNL1        0.0233
      9 C         142.6380  138.2129  158.4798 C.3     1  UNL1        0.0432
     10 C         142.8065  139.6143  157.9720 C.3     1  UNL1        0.0233
     11 C         143.0709  140.7341  158.9343 C.3     1  UNL1        0.0724
     12 C         142.3736  137.0930  157.5175 C.ar    1  UNL1        0.0628
     13 C         141.3658  137.2690  156.4206 C.ar    1  UNL1        0.0455
     14 C         141.1014  136.1492  155.4583 C.ar    1  UNL1        0.1413
     15 CL        140.0935  136.3251  154.3614 Cl      1  UNL1       -0.0612
     16 N         141.8448  134.8534  155.5929 N.ar    1  UNL1       -0.2124
     17 C         142.8527  134.6774  156.6899 C.ar    1  UNL1        0.1993
     18 N         143.1171  135.7972  157.6522 N.ar    1  UNL1       -0.2283
     19 C         142.8476  144.8991  163.4841 C.3     1  UNL1        0.0298
     20 C         143.8584  144.0907  164.2422 C.3     1  UNL1        0.0961
     21 C         144.8122  143.6456  165.0875 C.3     1  UNL1        0.0298
     22 O         144.1854  145.2887  165.0836 O.3     1  UNL1       -0.3863
     23 H         144.8722  145.0541  165.7273 H       1  UNL1        0.2102
     24 C         142.9861  142.3373  164.6831 C.2     1  UNL1        0.2240
     25 O         141.9010  143.0690  165.4161 O.2     1  UNL1       -0.2750
     26 N         143.5260  141.0501  165.2325 N.am    1  UNL1       -0.3004
     27 H         144.2381  140.5699  164.7514 H       1  UNL1        0.1497
     28 C         142.9808  140.4947  166.5147 C.3     1  UNL1        0.1163
     29 C         141.5728  139.9803  166.5706 C.ar    1  UNL1       -0.0027
     30 C         140.7418  140.2014  167.7996 C.ar    1  UNL1        0.0012
     31 C         139.3339  139.6870  167.8554 C.ar    1  UNL1        0.0711
     32 C         138.7570  138.9514  166.6823 C.ar    1  UNL1        0.0077
     33 C         139.5881  138.7302  165.4534 C.ar    1  UNL1        0.0711
     34 C         140.9960  139.2447  165.3975 C.ar    1  UNL1        0.0012
     35 C         138.5027  139.9081  169.0845 C.3     1  UNL1        0.4186
     36 F         137.6717  140.1293  170.3134 F       1  UNL1       -0.1659
     37 F         139.5086  140.9014  169.5859 F       1  UNL1       -0.1659
     38 F         137.4969  138.9148  168.5830 F       1  UNL1       -0.1659
     39 C         139.0113  137.9947  164.2803 C.3     1  UNL1        0.4186
     40 F         138.4344  137.2591  163.1072 F       1  UNL1       -0.1659
     41 F         138.3390  137.0325  165.2142 F       1  UNL1       -0.1659
     42 F         139.6835  138.9569  163.3464 F       1  UNL1       -0.1659
@<TRIPOS>BOND
     1    19    20    1
     2    20    21    1
     3    20    22    1
     4     1    20    1
     5     1    24    1
     6    24    25    2
     7    24    26   am
     8    26    28    1
     9    28    29    1
    10    29    30   ar
    11    30    31   ar
    12    31    35    1
    13    35    36    1
    14    35    37    1
    15    35    38    1
    16    31    32   ar
    17    32    33   ar
    18    33    39    1
    19    39    40    1
    20    39    41    1
    21    39    42    1
    22    33    34   ar
    23     1     2    1
    24     2     3    1
    25     3     4    1
    26     4     6    1
    27     6     7    1
    28     7     8    1
    29     8     9    1
    30     9    12    1
    31    12    13   ar
    32    13    14   ar
    33    14    15    1
    34    14    16   ar
    35    16    17   ar
    36    17    18   ar
    37     9    10    1
    38    10    11    1
    39     4     5    1
    40     5     1    1
    41    34    29   ar
    42    11     6    1
    43    18    12   ar
    44    22    23    1
    45    26    27    1
@<TRIPOS>MOLECULE
*****
 42 45 0 0 0
SMALL
GASTEIGER

@<TRIPOS>ATOM
      1 C         139.3161  142.3924  162.6796 C.3     1  UNL1        0.0925
      2 C         138.0984  142.5158  161.8124 C.3     1  UNL1        0.0123
      3 C         138.2943  141.6397  160.6108 C.3     1  UNL1        0.0165
      4 C         139.6331  140.9747  160.7353 C.3     1  UNL1        0.0581
      5 C         140.2646  141.4399  162.0139 C.3     1  UNL1        0.0268
      6 N         140.2347  140.0134  159.7535 N.3     1  UNL1       -0.2739
      7 C         139.5237  139.7111  158.4678 C.3     1  UNL1        0.0724
      8 C         140.1254  138.7498  157.4861 C.3     1  UNL1        0.0233
      9 C         141.4381  138.0906  157.7900 C.3     1  UNL1        0.0432
     10 C         142.1490  138.3929  159.0759 C.3     1  UNL1        0.0233
     11 C         141.5474  139.3542  160.0576 C.3     1  UNL1        0.0724
     12 C         142.0397  137.1293  156.8083 C.ar    1  UNL1        0.0628
     13 C         141.6312  137.1766  155.3658 C.ar    1  UNL1        0.0455
     14 C         142.2329  136.2152  154.3840 C.ar    1  UNL1        0.1413
     15 CL        141.8245  136.2625  152.9415 Cl      1  UNL1       -0.0612
     16 N         143.2430  135.2066  154.8448 N.ar    1  UNL1       -0.2124
     17 C         143.6514  135.1593  156.2875 C.ar    1  UNL1        0.1993
     18 N         143.0498  136.1206  157.2692 N.ar    1  UNL1       -0.2283
     19 C         138.9492  144.4812  162.6341 C.3     1  UNL1        0.0298
     20 C         138.5905  143.3614  163.5653 C.3     1  UNL1        0.0961
     21 C         138.1192  142.5945  164.5714 C.3     1  UNL1        0.0298
     22 O         137.8648  144.3305  164.4510 O.3     1  UNL1       -0.3863
     23 H         137.4897  143.8566  165.2098 H       1  UNL1        0.2102
     24 C         140.3821  142.4715  163.7319 C.2     1  UNL1        0.2240
     25 O         140.8082  143.8056  164.2690 O.2     1  UNL1       -0.2750
     26 N         141.0220  141.2164  164.2471 N.am    1  UNL1       -0.3004
     27 H         140.7423  140.3408  163.8946 H       1  UNL1        0.1497
     28 C         142.0880  141.2955  165.2994 C.3     1  UNL1        0.1163
     29 C         141.7071  141.3949  166.7469 C.ar    1  UNL1       -0.0027
     30 C         140.4529  140.7358  167.2394 C.ar    1  UNL1        0.0012
     31 C         140.0721  140.8352  168.6868 C.ar    1  UNL1        0.0711
     32 C         140.9454  141.5938  169.6417 C.ar    1  UNL1        0.0077
     33 C         142.1996  142.2529  169.1492 C.ar    1  UNL1        0.0711
     34 C         142.5804  142.1535  167.7018 C.ar    1  UNL1        0.0012
     35 C         138.8179  140.1761  169.1793 C.3     1  UNL1        0.4186
     36 F         137.5637  139.5170  169.6718 F       1  UNL1       -0.1659
     37 F         138.8688  139.2178  168.0265 F       1  UNL1       -0.1659
     38 F         138.7669  141.1344  170.3321 F       1  UNL1       -0.1659
     39 C         143.0730  143.0115  170.1041 C.3     1  UNL1        0.4186
     40 F         143.9463  143.7700  171.0590 F       1  UNL1       -0.1659
     41 F         144.1671  142.0054  169.9026 F       1  UNL1       -0.1659
     42 F         141.9788  144.0175  170.3056 F       1  UNL1       -0.1659
@<TRIPOS>BOND
     1    19    20    1
     2    20    21    1
     3    20    22    1
     4     1    20    1
     5     1    24    1
     6    24    25    2
     7    24    26   am
     8    26    28    1
     9    28    29    1
    10    29    30   ar
    11    30    31   ar
    12    31    35    1
    13    35    36    1
    14    35    37    1
    15    35    38    1
    16    31    32   ar
    17    32    33   ar
    18    33    39    1
    19    39    40    1
    20    39    41    1
    21    39    42    1
    22    33    34   ar
    23     1     2    1
    24     2     3    1
    25     3     4    1
    26     4     6    1
    27     6     7    1
    28     7     8    1
    29     8     9    1
    30     9    12    1
    31    12    13   ar
    32    13    14   ar
    33    14    15    1
    34    14    16   ar
    35    16    17   ar
    36    17    18   ar
    37     9    10    1
    38    10    11    1
    39     4     5    1
    40     5     1    1
    41    34    29   ar
    42    11     6    1
    43    18    12   ar
    44    22    23    1
    45    26    27    1
