@<TRIPOS>MOLECULE
*****
 35 38 0 0 0
SMALL
GASTEIGER

@<TRIPOS>ATOM
      1 C         138.7680  139.3119  166.6735 C.ar    1  UNL1        0.1387
      2 C         138.5440  138.9255  165.2416 C.ar    1  UNL1        0.0371
      3 C         139.4399  139.4702  164.1688 C.ar    1  UNL1        0.0078
      4 C         140.5598  140.4012  164.5281 C.ar    1  UNL1        0.0565
      5 C         141.4557  140.9459  163.4553 C.ar    1  UNL1        0.2613
      6 O         141.2317  140.5595  162.0234 O.2     1  UNL1       -0.2670
      7 N         142.5755  141.8769  163.8146 N.ar    1  UNL1       -0.2858
      8 C         142.7995  142.2633  165.2466 C.ar    1  UNL1        0.1318
      9 C         141.9036  141.7186  166.3193 C.ar    1  UNL1        0.0261
     10 C         140.7837  140.7876  165.9600 C.ar    1  UNL1        0.0097
     11 C         139.8878  140.2429  167.0327 C.ar    1  UNL1        0.0371
     12 C         142.1276  142.1050  167.7512 C.ar    1  UNL1        0.0021
     13 C         143.3543  141.6313  168.4728 C.ar    1  UNL1        0.0001
     14 C         143.5783  142.0177  169.9049 C.ar    1  UNL1        0.0000
     15 C         142.5755  142.8777  170.6152 C.ar    1  UNL1        0.0000
     16 C         141.3487  143.3514  169.8936 C.ar    1  UNL1        0.0000
     17 C         141.1248  142.9651  168.4617 C.ar    1  UNL1        0.0001
     18 C         136.9923  137.5864  167.4607 C.3     1  UNL1        0.2525
     19 O         137.8721  138.7672  167.7462 O.3     1  UNL1       -0.4714
     20 C         143.9194  143.1943  165.6058 C.1     1  UNL1        0.1180
     21 N         145.0393  144.1254  165.9650 N.1     1  UNL1       -0.1893
     22 C         143.4714  142.4215  162.7418 C.3     1  UNL1        0.1279
     23 CA        143.0493  143.6244  161.9513 C.3     1  UNL1        0.1069
     24 C         142.5275  143.4588  160.5548 C.3     1  UNL1        0.1547
     25 O         141.2046  142.7909  160.3227 O.3     1  UNL1       -0.3805
     26 H         141.2622  141.8592  160.5860 H       1  UNL1        0.2105
     27 N         143.1489  144.9929  162.5573 N.3     1  UNL1       -0.2912
     28 H         143.0808  145.6607  161.7893 H       1  UNL1        0.1236
     29 C         142.1586  145.4266  163.5973 C.3     1  UNL1        0.0973
     30 C         140.7106  145.0634  163.4517 C.ar    1  UNL1        0.0128
     31 C         140.0324  144.2453  164.5103 C.ar    1  UNL1        0.0002
     32 C         138.5844  143.8821  164.3647 C.ar    1  UNL1        0.0204
     33 C         137.8144  144.3371  163.1604 C.ar    1  UNL1        0.0989
     34 N         138.4926  145.1552  162.1018 N.ar    1  UNL1       -0.2426
     35 C         139.9407  145.5184  162.2474 C.ar    1  UNL1        0.0959
@<TRIPOS>BOND
     1    18    19    1
     2    19     1    1
     3     1     2   ar
     4     2     3   ar
     5     3     4   ar
     6     4     5   ar
     7     5     6    2
     8     5     7   ar
     9     7    22    1
    10    22    23    1
    11    23    24    1
    12    24    25    1
    13    23    27    1
    14    27    29    1
    15    29    30    1
    16    30    31   ar
    17    31    32   ar
    18    32    33   ar
    19    33    34   ar
    20    34    35   ar
    21     7     8   ar
    22     8    20    1
    23    20    21    3
    24     8     9   ar
    25     9    12    1
    26    12    13   ar
    27    13    14   ar
    28    14    15   ar
    29    15    16   ar
    30    16    17   ar
    31     9    10   ar
    32    10    11   ar
    33    11     1   ar
    34    10     4   ar
    35    35    30   ar
    36    17    12   ar
    37    25    26    1
    38    27    28    1
@<TRIPOS>MOLECULE
*****
 35 38 0 0 0
SMALL
GASTEIGER

@<TRIPOS>ATOM
      1 C         141.5291  141.9090  168.9938 C.ar    1  UNL1        0.1387
      2 C         140.5438  140.8848  169.4735 C.ar    1  UNL1        0.0371
      3 C         139.6182  140.2200  168.4981 C.ar    1  UNL1        0.0078
      4 C         139.6778  140.5796  167.0431 C.ar    1  UNL1        0.0565
      5 C         138.7522  139.9149  166.0677 C.ar    1  UNL1        0.2613
      6 O         137.7670  138.8906  166.5473 O.2     1  UNL1       -0.2670
      7 N         138.8119  140.2744  164.6126 N.ar    1  UNL1       -0.2858
      8 C         139.7971  141.2987  164.1329 C.ar    1  UNL1        0.1318
      9 C         140.7228  141.9635  165.1083 C.ar    1  UNL1        0.0261
     10 C         140.6631  141.6039  166.5634 C.ar    1  UNL1        0.0097
     11 C         141.5887  142.2686  167.5388 C.ar    1  UNL1        0.0371
     12 C         141.7080  142.9877  164.6287 C.ar    1  UNL1        0.0021
     13 C         143.1545  142.6221  164.4738 C.ar    1  UNL1        0.0001
     14 C         144.1398  143.6465  163.9941 C.ar    1  UNL1        0.0000
     15 C         143.6785  145.0364  163.6694 C.ar    1  UNL1        0.0000
     16 C         142.2320  145.4020  163.8243 C.ar    1  UNL1        0.0000
     17 C         141.2468  144.3777  164.3040 C.ar    1  UNL1        0.0001
     18 C         143.9367  142.3739  169.8524 C.3     1  UNL1        0.2525
     19 O         142.4547  142.5738  169.9692 O.3     1  UNL1       -0.4714
     20 C         139.8568  141.6583  162.6779 C.1     1  UNL1        0.1180
     21 N         139.9164  142.0178  161.2228 N.1     1  UNL1       -0.1893
     22 C         137.8862  139.6097  163.6373 C.3     1  UNL1        0.1279
     23 CA        138.4149  138.5780  162.6853 C.3     1  UNL1        0.1069
     24 C         137.9729  138.5837  161.2519 C.3     1  UNL1        0.1547
     25 O         136.9272  139.5564  160.7934 O.3     1  UNL1       -0.3805
     26 H         136.0825  139.3494  161.2229 H       1  UNL1        0.2105
     27 N         139.3856  137.5407  163.1667 N.3     1  UNL1       -0.2912
     28 H         138.9858  136.6320  162.9323 H       1  UNL1        0.1236
     29 C         140.7957  137.5383  162.6552 C.3     1  UNL1        0.0973
     30 C         141.9061  138.0661  163.5145 C.ar    1  UNL1        0.0128
     31 C         141.7534  138.0898  165.0065 C.ar    1  UNL1        0.0002
     32 C         142.8637  138.6175  165.8659 C.ar    1  UNL1        0.0204
     33 C         144.1270  139.1217  165.2332 C.ar    1  UNL1        0.0989
     34 N         144.2797  139.0980  163.7412 N.ar    1  UNL1       -0.2426
     35 C         143.1692  138.5702  162.8818 C.ar    1  UNL1        0.0959
@<TRIPOS>BOND
     1    18    19    1
     2    19     1    1
     3     1     2   ar
     4     2     3   ar
     5     3     4   ar
     6     4     5   ar
     7     5     6    2
     8     5     7   ar
     9     7    22    1
    10    22    23    1
    11    23    24    1
    12    24    25    1
    13    23    27    1
    14    27    29    1
    15    29    30    1
    16    30    31   ar
    17    31    32   ar
    18    32    33   ar
    19    33    34   ar
    20    34    35   ar
    21     7     8   ar
    22     8    20    1
    23    20    21    3
    24     8     9   ar
    25     9    12    1
    26    12    13   ar
    27    13    14   ar
    28    14    15   ar
    29    15    16   ar
    30    16    17   ar
    31     9    10   ar
    32    10    11   ar
    33    11     1   ar
    34    10     4   ar
    35    35    30   ar
    36    17    12   ar
    37    25    26    1
    38    27    28    1
@<TRIPOS>MOLECULE
*****
 35 38 0 0 0
SMALL
GASTEIGER

@<TRIPOS>ATOM
      1 C         141.3611  142.4346  168.8926 C.ar    1  UNL1        0.1387
      2 C         142.3229  141.3808  169.3555 C.ar    1  UNL1        0.0371
      3 C         142.8087  140.3351  168.3960 C.ar    1  UNL1        0.0078
      4 C         142.3326  140.3433  166.9736 C.ar    1  UNL1        0.0565
      5 C         142.8184  139.2976  166.0141 C.ar    1  UNL1        0.2613
      6 O         143.7802  138.2438  166.4770 O.2     1  UNL1       -0.2670
      7 N         142.3424  139.3058  164.5917 N.ar    1  UNL1       -0.2858
      8 C         141.3805  140.3597  164.1287 C.ar    1  UNL1        0.1318
      9 C         140.8948  141.4054  165.0882 C.ar    1  UNL1        0.0261
     10 C         141.3709  141.3972  166.5107 C.ar    1  UNL1        0.0097
     11 C         140.8851  142.4428  167.4702 C.ar    1  UNL1        0.0371
     12 C         139.9330  142.4592  164.6253 C.ar    1  UNL1        0.0021
     13 C         138.4557  142.2081  164.6926 C.ar    1  UNL1        0.0001
     14 C         137.4939  143.2621  164.2297 C.ar    1  UNL1        0.0000
     15 C         138.0095  144.5670  163.6994 C.ar    1  UNL1        0.0000
     16 C         139.4868  144.8181  163.6320 C.ar    1  UNL1        0.0000
     17 C         140.4485  143.7643  164.0949 C.ar    1  UNL1        0.0001
     18 C         139.7478  143.1704  170.7914 C.3     1  UNL1        0.2525
     19 O         140.8754  143.4803  169.8521 O.3     1  UNL1       -0.4714
     20 C         140.9045  140.3679  162.7063 C.1     1  UNL1        0.1180
     21 N         140.4284  140.3761  161.2838 N.1     1  UNL1       -0.1893
     22 C         142.8281  138.2601  163.6322 C.3     1  UNL1        0.1279
     23 CA        143.8469  138.6142  162.5896 C.3     1  UNL1        0.1069
     24 C         143.8909  137.8559  161.2961 C.3     1  UNL1        0.1547
     25 O         142.7203  137.0161  160.8788 O.3     1  UNL1       -0.3805
     26 H         142.6164  136.2761  161.4973 H       1  UNL1        0.2105
     27 N         144.8215  139.7264  162.8406 N.3     1  UNL1       -0.2912
     28 H         145.7500  139.3554  162.6389 H       1  UNL1        0.1236
     29 C         144.6975  141.0169  162.0860 C.3     1  UNL1        0.0973
     30 C         144.4457  142.2971  162.8259 C.ar    1  UNL1        0.0128
     31 C         144.4770  142.3154  164.3254 C.ar    1  UNL1        0.0002
     32 C         144.2252  143.5956  165.0653 C.ar    1  UNL1        0.0204
     33 C         143.9419  144.8577  164.3057 C.ar    1  UNL1        0.0989
     34 N         143.9106  144.8394  162.8061 N.ar    1  UNL1       -0.2426
     35 C         144.1624  143.5591  162.0662 C.ar    1  UNL1        0.0959
@<TRIPOS>BOND
     1    18    19    1
     2    19     1    1
     3     1     2   ar
     4     2     3   ar
     5     3     4   ar
     6     4     5   ar
     7     5     6    2
     8     5     7   ar
     9     7    22    1
    10    22    23    1
    11    23    24    1
    12    24    25    1
    13    23    27    1
    14    27    29    1
    15    29    30    1
    16    30    31   ar
    17    31    32   ar
    18    32    33   ar
    19    33    34   ar
    20    34    35   ar
    21     7     8   ar
    22     8    20    1
    23    20    21    3
    24     8     9   ar
    25     9    12    1
    26    12    13   ar
    27    13    14   ar
    28    14    15   ar
    29    15    16   ar
    30    16    17   ar
    31     9    10   ar
    32    10    11   ar
    33    11     1   ar
    34    10     4   ar
    35    35    30   ar
    36    17    12   ar
    37    25    26    1
    38    27    28    1
@<TRIPOS>MOLECULE
*****
 35 38 0 0 0
SMALL
GASTEIGER

@<TRIPOS>ATOM
      1 C         141.9626  140.7049  169.0667 C.ar    1  UNL1        0.1387
      2 C         140.5857  140.2692  169.4720 C.ar    1  UNL1        0.0371
      3 C         139.5784  139.8968  168.4248 C.ar    1  UNL1        0.0078
      4 C         139.9479  139.9599  166.9725 C.ar    1  UNL1        0.0565
      5 C         138.9405  139.5875  165.9254 C.ar    1  UNL1        0.2613
      6 O         137.5636  139.1518  166.3306 O.2     1  UNL1       -0.2670
      7 N         139.3101  139.6506  164.4730 N.ar    1  UNL1       -0.2858
      8 C         140.6870  140.0863  164.0677 C.ar    1  UNL1        0.1318
      9 C         141.6944  140.4588  165.1148 C.ar    1  UNL1        0.0261
     10 C         141.3248  140.3956  166.5672 C.ar    1  UNL1        0.0097
     11 C         142.3322  140.7681  167.6144 C.ar    1  UNL1        0.0371
     12 C         143.0713  140.8945  164.7096 C.ar    1  UNL1        0.0021
     13 C         143.3697  142.3514  164.5136 C.ar    1  UNL1        0.0001
     14 C         144.7467  142.7870  164.1083 C.ar    1  UNL1        0.0000
     15 C         145.8252  141.7658  163.8991 C.ar    1  UNL1        0.0000
     16 C         145.5268  140.3089  164.0951 C.ar    1  UNL1        0.0000
     17 C         144.1499  139.8732  164.5003 C.ar    1  UNL1        0.0001
     18 C         143.8528  142.2734  169.9135 C.3     1  UNL1        0.2525
     19 O         142.9700  141.0774  170.1139 O.3     1  UNL1       -0.4714
     20 C         141.0566  140.1495  162.6153 C.1     1  UNL1        0.1180
     21 N         141.4261  140.2127  161.1629 N.1     1  UNL1       -0.1893
     22 C         138.3027  139.2782  163.4259 C.3     1  UNL1        0.1279
     23 CA        137.6228  140.3487  162.6248 C.3     1  UNL1        0.1069
     24 C         137.7433  140.3574  161.1297 C.3     1  UNL1        0.1547
     25 O         138.5526  141.4209  160.4486 O.3     1  UNL1       -0.3805
     26 H         138.1304  142.2839  160.5824 H       1  UNL1        0.2105
     27 N         136.8224  141.4106  163.3188 N.3     1  UNL1       -0.2912
     28 H         136.0891  140.9319  163.8419 H       1  UNL1        0.1236
     29 C         137.4937  142.3507  164.2758 C.3     1  UNL1        0.0973
     30 C         138.4272  143.4055  163.7603 C.ar    1  UNL1        0.0128
     31 C         139.7567  143.6186  164.4214 C.ar    1  UNL1        0.0002
     32 C         140.6902  144.6735  163.9059 C.ar    1  UNL1        0.0204
     33 C         140.2942  145.5153  162.7292 C.ar    1  UNL1        0.0989
     34 N         138.9647  145.3023  162.0681 N.ar    1  UNL1       -0.2426
     35 C         138.0312  144.2473  162.5836 C.ar    1  UNL1        0.0959
@<TRIPOS>BOND
     1    18    19    1
     2    19     1    1
     3     1     2   ar
     4     2     3   ar
     5     3     4   ar
     6     4     5   ar
     7     5     6    2
     8     5     7   ar
     9     7    22    1
    10    22    23    1
    11    23    24    1
    12    24    25    1
    13    23    27    1
    14    27    29    1
    15    29    30    1
    16    30    31   ar
    17    31    32   ar
    18    32    33   ar
    19    33    34   ar
    20    34    35   ar
    21     7     8   ar
    22     8    20    1
    23    20    21    3
    24     8     9   ar
    25     9    12    1
    26    12    13   ar
    27    13    14   ar
    28    14    15   ar
    29    15    16   ar
    30    16    17   ar
    31     9    10   ar
    32    10    11   ar
    33    11     1   ar
    34    10     4   ar
    35    35    30   ar
    36    17    12   ar
    37    25    26    1
    38    27    28    1
@<TRIPOS>MOLECULE
*****
 35 38 0 0 0
SMALL
GASTEIGER

@<TRIPOS>ATOM
      1 C         140.3450  141.9292  168.7527 C.ar    1  UNL1        0.1387
      2 C         139.4950  140.7234  169.0236 C.ar    1  UNL1        0.0371
      3 C         139.2328  139.7298  167.9309 C.ar    1  UNL1        0.0078
      4 C         139.8207  139.9419  166.5674 C.ar    1  UNL1        0.0565
      5 C         139.5586  138.9482  165.4747 C.ar    1  UNL1        0.2613
      6 O         138.7085  137.7424  165.7456 O.2     1  UNL1       -0.2670
      7 N         140.1465  139.1604  164.1112 N.ar    1  UNL1       -0.2858
      8 C         140.9966  140.3662  163.8402 C.ar    1  UNL1        0.1318
      9 C         141.2587  141.3599  164.9329 C.ar    1  UNL1        0.0261
     10 C         140.6708  141.1477  166.2965 C.ar    1  UNL1        0.0097
     11 C         140.9329  142.1413  167.3891 C.ar    1  UNL1        0.0371
     12 C         142.1088  142.5657  164.6620 C.ar    1  UNL1        0.0021
     13 C         143.5740  142.5375  164.9817 C.ar    1  UNL1        0.0001
     14 C         144.4241  143.7434  164.7108 C.ar    1  UNL1        0.0000
     15 C         143.8089  144.9773  164.1201 C.ar    1  UNL1        0.0000
     16 C         142.3436  145.0055  163.8004 C.ar    1  UNL1        0.0000
     17 C         141.4936  143.7997  164.0713 C.ar    1  UNL1        0.0001
     18 C         142.0148  143.2078  170.2781 C.3     1  UNL1        0.2525
     19 O         140.6072  142.9229  169.8454 O.3     1  UNL1       -0.4714
     20 C         141.5845  140.5783  162.4767 C.1     1  UNL1        0.1180
     21 N         142.1723  140.7905  161.1130 N.1     1  UNL1       -0.1893
     22 C         139.8843  138.1667  163.0185 C.3     1  UNL1        0.1279
     23 CA        138.9583  138.5178  161.8918 C.3     1  UNL1        0.1069
     24 C         139.2599  138.0487  160.4993 C.3     1  UNL1        0.1547
     25 O         140.3477  138.7084  159.7048 O.3     1  UNL1       -0.3805
     26 H         140.0990  139.6268  159.5164 H       1  UNL1        0.2105
     27 N         137.7308  139.3379  162.1576 N.3     1  UNL1       -0.2912
     28 H         137.6752  139.4657  163.1681 H       1  UNL1        0.1236
     29 C         137.5893  140.6978  161.5407 C.3     1  UNL1        0.0973
     30 C         137.7587  141.9258  162.3853 C.ar    1  UNL1        0.0128
     31 C         137.6681  141.8270  163.8793 C.ar    1  UNL1        0.0002
     32 C         137.8375  143.0549  164.7238 C.ar    1  UNL1        0.0204
     33 C         138.0975  144.3819  164.0744 C.ar    1  UNL1        0.0989
     34 N         138.1882  144.4807  162.5804 N.ar    1  UNL1       -0.2426
     35 C         138.0188  143.2527  161.7358 C.ar    1  UNL1        0.0959
@<TRIPOS>BOND
     1    18    19    1
     2    19     1    1
     3     1     2   ar
     4     2     3   ar
     5     3     4   ar
     6     4     5   ar
     7     5     6    2
     8     5     7   ar
     9     7    22    1
    10    22    23    1
    11    23    24    1
    12    24    25    1
    13    23    27    1
    14    27    29    1
    15    29    30    1
    16    30    31   ar
    17    31    32   ar
    18    32    33   ar
    19    33    34   ar
    20    34    35   ar
    21     7     8   ar
    22     8    20    1
    23    20    21    3
    24     8     9   ar
    25     9    12    1
    26    12    13   ar
    27    13    14   ar
    28    14    15   ar
    29    15    16   ar
    30    16    17   ar
    31     9    10   ar
    32    10    11   ar
    33    11     1   ar
    34    10     4   ar
    35    35    30   ar
    36    17    12   ar
    37    25    26    1
    38    27    28    1
@<TRIPOS>MOLECULE
*****
 35 38 0 0 0
SMALL
GASTEIGER

@<TRIPOS>ATOM
      1 C         141.2118  139.8883  168.1517 C.ar    1  UNL1        0.1387
      2 C         142.4678  139.0703  168.0951 C.ar    1  UNL1        0.0371
      3 C         143.3443  139.1249  166.8790 C.ar    1  UNL1        0.0078
      4 C         142.9647  139.9974  165.7195 C.ar    1  UNL1        0.0565
      5 C         143.8411  140.0519  164.5034 C.ar    1  UNL1        0.2613
      6 O         145.0972  139.2340  164.4469 O.2     1  UNL1       -0.2670
      7 N         143.4615  140.9244  163.3439 N.ar    1  UNL1       -0.2858
      8 C         142.2054  141.7424  163.4004 C.ar    1  UNL1        0.1318
      9 C         141.3290  141.6879  164.6165 C.ar    1  UNL1        0.0261
     10 C         141.7086  140.8153  165.7760 C.ar    1  UNL1        0.0097
     11 C         140.8322  140.7608  166.9921 C.ar    1  UNL1        0.0371
     12 C         140.0729  142.5059  164.6730 C.ar    1  UNL1        0.0021
     13 C         138.7771  141.9247  164.1903 C.ar    1  UNL1        0.0001
     14 C         137.5210  142.7427  164.2469 C.ar    1  UNL1        0.0000
     15 C         137.5608  144.1419  164.7861 C.ar    1  UNL1        0.0000
     16 C         138.8567  144.7230  165.2688 C.ar    1  UNL1        0.0000
     17 C         140.1127  143.9051  165.2122 C.ar    1  UNL1        0.0001
     18 C         139.6099  141.0643  169.8252 C.3     1  UNL1        0.2525
     19 O         140.3354  139.8337  169.3678 O.3     1  UNL1       -0.4714
     20 C         141.8258  142.6149  162.2408 C.1     1  UNL1        0.1180
     21 N         141.4461  143.4875  161.0812 N.1     1  UNL1       -0.1893
     22 C         144.3380  140.9790  162.1278 C.3     1  UNL1        0.1279
     23 CA        144.1378  139.9940  161.0142 C.3     1  UNL1        0.1069
     24 C         143.7717  140.4774  159.6422 C.3     1  UNL1        0.1547
     25 O         144.2931  139.7622  158.4312 O.3     1  UNL1       -0.3805
     26 H         145.2569  139.8621  158.3867 H       1  UNL1        0.2105
     27 N         144.3037  138.5258  161.2727 N.3     1  UNL1       -0.2912
     28 H         144.5953  138.4292  162.2453 H       1  UNL1        0.1236
     29 C         143.1455  137.5936  161.0733 C.3     1  UNL1        0.0973
     30 C         141.8356  137.8693  161.7501 C.ar    1  UNL1        0.0128
     31 C         141.6769  137.5960  163.2165 C.ar    1  UNL1        0.0002
     32 C         140.3670  137.8717  163.8933 C.ar    1  UNL1        0.0204
     33 C         139.2158  138.4208  163.1038 C.ar    1  UNL1        0.0989
     34 N         139.3745  138.6941  161.6375 N.ar    1  UNL1       -0.2426
     35 C         140.6845  138.4184  160.9607 C.ar    1  UNL1        0.0959
@<TRIPOS>BOND
     1    18    19    1
     2    19     1    1
     3     1     2   ar
     4     2     3   ar
     5     3     4   ar
     6     4     5   ar
     7     5     6    2
     8     5     7   ar
     9     7    22    1
    10    22    23    1
    11    23    24    1
    12    24    25    1
    13    23    27    1
    14    27    29    1
    15    29    30    1
    16    30    31   ar
    17    31    32   ar
    18    32    33   ar
    19    33    34   ar
    20    34    35   ar
    21     7     8   ar
    22     8    20    1
    23    20    21    3
    24     8     9   ar
    25     9    12    1
    26    12    13   ar
    27    13    14   ar
    28    14    15   ar
    29    15    16   ar
    30    16    17   ar
    31     9    10   ar
    32    10    11   ar
    33    11     1   ar
    34    10     4   ar
    35    35    30   ar
    36    17    12   ar
    37    25    26    1
    38    27    28    1
@<TRIPOS>MOLECULE
*****
 35 38 0 0 0
SMALL
GASTEIGER

@<TRIPOS>ATOM
      1 C         142.1475  141.2307  169.3894 C.ar    1  UNL1        0.1387
      2 C         143.2293  142.2698  169.4045 C.ar    1  UNL1        0.0371
      3 C         143.7939  142.7834  168.1133 C.ar    1  UNL1        0.0078
      4 C         143.2768  142.2581  166.8069 C.ar    1  UNL1        0.0565
      5 C         143.8414  142.7717  165.5157 C.ar    1  UNL1        0.2613
      6 O         144.9232  143.8107  165.5308 O.2     1  UNL1       -0.2670
      7 N         143.3244  142.2464  164.2093 N.ar    1  UNL1       -0.2858
      8 C         142.2426  141.2073  164.1942 C.ar    1  UNL1        0.1318
      9 C         141.6779  140.6936  165.4855 C.ar    1  UNL1        0.0261
     10 C         142.1951  141.2190  166.7919 C.ar    1  UNL1        0.0097
     11 C         141.6304  140.7054  168.0831 C.ar    1  UNL1        0.0371
     12 C         140.5962  139.6546  165.4704 C.ar    1  UNL1        0.0021
     13 C         139.1924  140.0280  165.8443 C.ar    1  UNL1        0.0001
     14 C         138.1106  138.9889  165.8292 C.ar    1  UNL1        0.0000
     15 C         138.4327  137.5765  165.4402 C.ar    1  UNL1        0.0000
     16 C         139.8366  137.2031  165.0663 C.ar    1  UNL1        0.0000
     17 C         140.9183  138.2421  165.0814 C.ar    1  UNL1        0.0001
     18 C         140.3450  139.8701  170.6737 C.3     1  UNL1        0.2525
     19 O         141.5829  140.7171  170.6807 O.3     1  UNL1       -0.4714
     20 C         141.7255  140.6819  162.8879 C.1     1  UNL1        0.1180
     21 N         141.2084  140.1565  161.5815 N.1     1  UNL1       -0.1893
     22 C         143.8890  142.7600  162.9181 C.3     1  UNL1        0.1279
     23 CA        143.2016  143.8774  162.1908 C.3     1  UNL1        0.1069
     24 C         142.6061  143.6357  160.8354 C.3     1  UNL1        0.1547
     25 O         142.1991  144.7966  159.9771 O.3     1  UNL1       -0.3805
     26 H         141.4616  145.2663  160.3971 H       1  UNL1        0.2105
     27 N         143.1097  145.2365  162.8188 N.3     1  UNL1       -0.2912
     28 H         142.9315  145.8984  162.0635 H       1  UNL1        0.1236
     29 C         142.0844  145.5044  163.8804 C.3     1  UNL1        0.0973
     30 C         140.6799  145.0061  163.7094 C.ar    1  UNL1        0.0128
     31 C         140.1051  144.0310  164.6936 C.ar    1  UNL1        0.0002
     32 C         138.7006  143.5327  164.5226 C.ar    1  UNL1        0.0204
     33 C         137.8710  144.0095  163.3674 C.ar    1  UNL1        0.0989
     34 N         138.4459  144.9846  162.3831 N.ar    1  UNL1       -0.2426
     35 C         139.8504  145.4829  162.5542 C.ar    1  UNL1        0.0959
@<TRIPOS>BOND
     1    18    19    1
     2    19     1    1
     3     1     2   ar
     4     2     3   ar
     5     3     4   ar
     6     4     5   ar
     7     5     6    2
     8     5     7   ar
     9     7    22    1
    10    22    23    1
    11    23    24    1
    12    24    25    1
    13    23    27    1
    14    27    29    1
    15    29    30    1
    16    30    31   ar
    17    31    32   ar
    18    32    33   ar
    19    33    34   ar
    20    34    35   ar
    21     7     8   ar
    22     8    20    1
    23    20    21    3
    24     8     9   ar
    25     9    12    1
    26    12    13   ar
    27    13    14   ar
    28    14    15   ar
    29    15    16   ar
    30    16    17   ar
    31     9    10   ar
    32    10    11   ar
    33    11     1   ar
    34    10     4   ar
    35    35    30   ar
    36    17    12   ar
    37    25    26    1
    38    27    28    1
@<TRIPOS>MOLECULE
*****
 35 38 0 0 0
SMALL
GASTEIGER

@<TRIPOS>ATOM
      1 C         143.2430  142.1786  166.9654 C.ar    1  UNL1        0.1387
      2 C         144.1097  143.2418  166.3585 C.ar    1  UNL1        0.0371
      3 C         143.9634  143.5907  164.9070 C.ar    1  UNL1        0.0078
      4 C         142.9502  142.8765  164.0624 C.ar    1  UNL1        0.0565
      5 C         142.8039  143.2254  162.6109 C.ar    1  UNL1        0.2613
      6 O         143.6706  144.2886  162.0040 O.2     1  UNL1       -0.2670
      7 N         141.7907  142.5112  161.7663 N.ar    1  UNL1       -0.2858
      8 C         140.9239  141.4479  162.3732 C.ar    1  UNL1        0.1318
      9 C         141.0703  141.0990  163.8247 C.ar    1  UNL1        0.0261
     10 C         142.0835  141.8133  164.6693 C.ar    1  UNL1        0.0097
     11 C         142.2299  141.4644  166.1208 C.ar    1  UNL1        0.0371
     12 C         140.2036  140.0358  164.4316 C.ar    1  UNL1        0.0021
     13 C         140.5762  138.5903  164.2851 C.ar    1  UNL1        0.0001
     14 C         139.7094  137.5270  164.8920 C.ar    1  UNL1        0.0000
     15 C         138.4700  137.9094  165.6454 C.ar    1  UNL1        0.0000
     16 C         138.0973  139.3550  165.7919 C.ar    1  UNL1        0.0000
     17 C         138.9641  140.4182  165.1850 C.ar    1  UNL1        0.0001
     18 C         142.6232  142.5965  169.4536 C.3     1  UNL1        0.2525
     19 O         143.3894  141.8297  168.4169 O.3     1  UNL1       -0.4714
     20 C         139.9108  140.7337  161.5286 C.1     1  UNL1        0.1180
     21 N         138.8976  140.0194  160.6840 N.1     1  UNL1       -0.1893
     22 C         141.6444  142.8601  160.3148 C.3     1  UNL1        0.1279
     23 CA        140.8094  144.0377  159.9071 C.3     1  UNL1        0.1069
     24 C         139.7421  143.8756  158.8656 C.3     1  UNL1        0.1547
     25 O         138.7043  142.8031  159.0159 O.3     1  UNL1       -0.3805
     26 H         139.1273  141.9326  158.9515 H       1  UNL1        0.2105
     27 N         141.0417  145.3773  160.5407 N.3     1  UNL1       -0.2912
     28 H         141.1867  146.0415  159.7803 H       1  UNL1        0.1236
     29 C         140.0002  145.9714  161.4420 C.3     1  UNL1        0.0973
     30 C         139.4164  145.1529  162.5552 C.ar    1  UNL1        0.0128
     31 C         140.0478  145.1781  163.9155 C.ar    1  UNL1        0.0002
     32 C         139.4640  144.3596  165.0287 C.ar    1  UNL1        0.0204
     33 C         138.2486  143.5159  164.7815 C.ar    1  UNL1        0.0989
     34 N         137.6172  143.4907  163.4211 N.ar    1  UNL1       -0.2426
     35 C         138.2011  144.3092  162.3079 C.ar    1  UNL1        0.0959
@<TRIPOS>BOND
     1    18    19    1
     2    19     1    1
     3     1     2   ar
     4     2     3   ar
     5     3     4   ar
     6     4     5   ar
     7     5     6    2
     8     5     7   ar
     9     7    22    1
    10    22    23    1
    11    23    24    1
    12    24    25    1
    13    23    27    1
    14    27    29    1
    15    29    30    1
    16    30    31   ar
    17    31    32   ar
    18    32    33   ar
    19    33    34   ar
    20    34    35   ar
    21     7     8   ar
    22     8    20    1
    23    20    21    3
    24     8     9   ar
    25     9    12    1
    26    12    13   ar
    27    13    14   ar
    28    14    15   ar
    29    15    16   ar
    30    16    17   ar
    31     9    10   ar
    32    10    11   ar
    33    11     1   ar
    34    10     4   ar
    35    35    30   ar
    36    17    12   ar
    37    25    26    1
    38    27    28    1
@<TRIPOS>MOLECULE
*****
 35 38 0 0 0
SMALL
GASTEIGER

@<TRIPOS>ATOM
      1 C         144.0438  139.6110  165.1400 C.ar    1  UNL1        0.1387
      2 C         144.6282  140.0542  163.8316 C.ar    1  UNL1        0.0371
      3 C         144.0818  141.2671  163.1386 C.ar    1  UNL1        0.0078
      4 C         142.9510  142.0368  163.7539 C.ar    1  UNL1        0.0565
      5 C         142.4045  143.2497  163.0609 C.ar    1  UNL1        0.2613
      6 O         142.9890  143.6929  161.7525 O.2     1  UNL1       -0.2670
      7 N         141.2737  144.0194  163.6762 N.ar    1  UNL1       -0.2858
      8 C         140.6892  143.5762  164.9847 C.ar    1  UNL1        0.1318
      9 C         141.2356  142.3633  165.6777 C.ar    1  UNL1        0.0261
     10 C         142.3665  141.5936  165.0623 C.ar    1  UNL1        0.0097
     11 C         142.9130  140.3807  165.7554 C.ar    1  UNL1        0.0371
     12 C         140.6512  141.9201  166.9861 C.ar    1  UNL1        0.0021
     13 C         140.8845  142.7324  168.2254 C.ar    1  UNL1        0.0001
     14 C         140.3000  142.2891  169.5338 C.ar    1  UNL1        0.0000
     15 C         139.4823  141.0336  169.6030 C.ar    1  UNL1        0.0000
     16 C         139.2490  140.2212  168.3638 C.ar    1  UNL1        0.0000
     17 C         139.8334  140.6644  167.0554 C.ar    1  UNL1        0.0001
     18 C         143.7676  137.6925  166.8700 C.3     1  UNL1        0.2525
     19 O         144.5902  138.3981  165.8331 O.3     1  UNL1       -0.4714
     20 C         139.5583  144.3458  165.6001 C.1     1  UNL1        0.1180
     21 N         138.4274  145.1156  166.2154 N.1     1  UNL1       -0.1893
     22 C         140.7273  145.2322  162.9832 C.3     1  UNL1        0.1279
     23 CA        139.9306  145.0799  161.7213 C.3     1  UNL1        0.1069
     24 C         140.3501  145.8055  160.4773 C.3     1  UNL1        0.1547
     25 O         141.6777  145.5068  159.8464 O.3     1  UNL1       -0.3805
     26 H         142.3895  145.7844  160.4441 H       1  UNL1        0.2105
     27 N         138.7146  144.2019  161.7035 N.3     1  UNL1       -0.2912
     28 H         138.0037  144.6944  161.1626 H       1  UNL1        0.1236
     29 C         138.8003  142.8131  161.1429 C.3     1  UNL1        0.0973
     30 C         138.9387  141.6389  162.0660 C.ar    1  UNL1        0.0128
     31 C         140.0771  140.6779  161.8916 C.ar    1  UNL1        0.0002
     32 C         140.2154  139.5037  162.8147 C.ar    1  UNL1        0.0204
     33 C         139.2152  139.2905  163.9122 C.ar    1  UNL1        0.0989
     34 N         138.0768  140.2516  164.0865 N.ar    1  UNL1       -0.2426
     35 C         137.9386  141.4258  163.1634 C.ar    1  UNL1        0.0959
@<TRIPOS>BOND
     1    18    19    1
     2    19     1    1
     3     1     2   ar
     4     2     3   ar
     5     3     4   ar
     6     4     5   ar
     7     5     6    2
     8     5     7   ar
     9     7    22    1
    10    22    23    1
    11    23    24    1
    12    24    25    1
    13    23    27    1
    14    27    29    1
    15    29    30    1
    16    30    31   ar
    17    31    32   ar
    18    32    33   ar
    19    33    34   ar
    20    34    35   ar
    21     7     8   ar
    22     8    20    1
    23    20    21    3
    24     8     9   ar
    25     9    12    1
    26    12    13   ar
    27    13    14   ar
    28    14    15   ar
    29    15    16   ar
    30    16    17   ar
    31     9    10   ar
    32    10    11   ar
    33    11     1   ar
    34    10     4   ar
    35    35    30   ar
    36    17    12   ar
    37    25    26    1
    38    27    28    1
