@<TRIPOS>MOLECULE
*****
 38 42 0 0 0
SMALL
GASTEIGER

@<TRIPOS>ATOM
      1 C         141.4472  137.3430  154.7661 C.ar    1  UNL1       -0.0065
      2 C         140.2376  136.8484  155.5024 C.ar    1  UNL1       -0.0033
      3 C         139.9447  137.3493  156.8855 C.ar    1  UNL1       -0.0048
      4 C         140.8614  138.3449  157.5325 C.ar    1  UNL1       -0.0245
      5 C         142.0710  138.8395  156.7962 C.ar    1  UNL1       -0.0263
      6 C         142.3639  138.3385  155.4131 C.ar    1  UNL1       -0.0075
      7 C         142.9877  139.8350  157.4431 C.3     1  UNL1        0.0277
      8 C         142.6948  140.3360  158.8263 C.3     1  UNL1        0.0248
      9 C         141.4851  139.8414  159.5626 C.3     1  UNL1        0.0804
     10 C         140.5684  138.8458  158.9157 C.3     1  UNL1        0.0458
     11 N         141.1921  140.3424  160.9458 N.am    1  UNL1       -0.2756
     12 C         140.5987  141.7064  161.1394 C.3     1  UNL1        0.1151
     13 C         141.4926  139.4794  162.1353 C.2     1  UNL1        0.2490
     14 O         142.0860  138.1155  161.9417 O.2     1  UNL1       -0.2699
     15 C         141.1996  139.9804  163.5185 C.ar    1  UNL1        0.0536
     16 C         139.8727  139.6915  164.1555 C.ar    1  UNL1        0.0045
     17 C         139.5798  140.1926  165.5386 C.ar    1  UNL1        0.0001
     18 C         140.6138  140.9825  166.2848 C.ar    1  UNL1        0.0000
     19 C         141.9407  141.2714  165.6479 C.ar    1  UNL1        0.0001
     20 C         142.2336  140.7704  164.2647 C.ar    1  UNL1        0.0045
     21 C         140.3208  141.4835  167.6680 C.ar    1  UNL1        0.0001
     22 C         139.7044  140.5669  168.6828 C.ar    1  UNL1        0.0023
     23 C         139.4115  141.0680  170.0660 C.ar    1  UNL1        0.0296
     24 C         139.7349  142.4856  170.4343 C.ar    1  UNL1        0.1401
     25 F         139.4419  142.9867  171.8175 F       1  UNL1       -0.2042
     26 C         140.3513  143.4022  169.4195 C.ar    1  UNL1        0.0296
     27 C         140.6442  142.9012  168.0364 C.ar    1  UNL1        0.0023
     28 C         141.7402  136.8420  153.3829 C.3     1  UNL1        0.0995
     29 C         142.4386  134.3139  153.8987 C.3     1  UNL1        0.1353
     30 C         142.1569  132.9848  153.2628 C.3     1  UNL1        0.0268
     31 C         141.2750  133.2183  152.0722 C.3     1  UNL1        0.0192
     32 C         141.0115  134.6916  151.9723 C.3     1  UNL1        0.0728
     33 N         141.7307  135.3687  153.1011 N.3     1  UNL1       -0.2628
     34 C         143.9922  133.8715  157.5237 C.3     1  UNL1        0.1149
     35 N         143.1504  133.6383  156.3043 N.am    1  UNL1       -0.2749
     36 C         142.1785  132.4961  156.2710 C.3     1  UNL1        0.1149
     37 C         143.2804  134.5471  155.1182 C.2     1  UNL1        0.2402
     38 O         144.2522  135.6893  155.1514 O.2     1  UNL1       -0.2734
@<TRIPOS>BOND
     1    34    35    1
     2    35    36    1
     3    35    37   am
     4    37    38    2
     5    29    37    1
     6    29    30    1
     7    30    31    1
     8    31    32    1
     9    32    33    1
    10    33    28    1
    11    28     1    1
    12     1     2   ar
    13     2     3   ar
    14     3     4   ar
    15     4     5   ar
    16     5     6   ar
    17     5     7    1
    18     7     8    1
    19     8     9    1
    20     9    11    1
    21    11    12    1
    22    11    13   am
    23    13    14    2
    24    13    15    1
    25    15    16   ar
    26    16    17   ar
    27    17    18   ar
    28    18    21    1
    29    21    22   ar
    30    22    23   ar
    31    23    24   ar
    32    24    25    1
    33    24    26   ar
    34    26    27   ar
    35    18    19   ar
    36    19    20   ar
    37     9    10    1
    38    33    29    1
    39     6     1   ar
    40    20    15   ar
    41    10     4    1
    42    27    21   ar
@<TRIPOS>MOLECULE
*****
 38 42 0 0 0
SMALL
GASTEIGER

@<TRIPOS>ATOM
      1 C         141.7799  134.7818  155.6325 C.ar    1  UNL1       -0.0065
      2 C         140.8103  135.2533  154.5896 C.ar    1  UNL1       -0.0033
      3 C         140.5463  136.7201  154.4196 C.ar    1  UNL1       -0.0048
      4 C         141.2518  137.7153  155.2924 C.ar    1  UNL1       -0.0245
      5 C         142.2213  137.2437  156.3353 C.ar    1  UNL1       -0.0263
      6 C         142.4854  135.7770  156.5053 C.ar    1  UNL1       -0.0075
      7 C         142.9268  138.2390  157.2081 C.3     1  UNL1        0.0277
      8 C         142.6628  139.7057  157.0381 C.3     1  UNL1        0.0248
      9 C         141.6932  140.1773  155.9952 C.3     1  UNL1        0.0804
     10 C         140.9877  139.1821  155.1224 C.3     1  UNL1        0.0458
     11 N         141.4291  141.6440  155.8252 N.am    1  UNL1       -0.2756
     12 C         142.3823  142.4911  155.0352 C.3     1  UNL1        0.1151
     13 C         140.2119  142.2637  156.4451 C.2     1  UNL1        0.2490
     14 O         139.2587  141.4167  157.2351 O.2     1  UNL1       -0.2699
     15 C         139.9479  143.7305  156.2751 C.ar    1  UNL1        0.0536
     16 C         138.8421  144.1940  155.3738 C.ar    1  UNL1        0.0045
     17 C         138.5781  145.6607  155.2038 C.ar    1  UNL1        0.0001
     18 C         139.4199  146.6640  155.9351 C.ar    1  UNL1        0.0000
     19 C         140.5257  146.2006  156.8364 C.ar    1  UNL1        0.0001
     20 C         140.7897  144.7338  157.0064 C.ar    1  UNL1        0.0045
     21 C         139.1559  148.1308  155.7650 C.ar    1  UNL1        0.0001
     22 C         139.5924  148.8312  154.5125 C.ar    1  UNL1        0.0023
     23 C         139.3284  150.2979  154.3425 C.ar    1  UNL1        0.0296
     24 C         138.6278  151.0643  155.4250 C.ar    1  UNL1        0.1401
     25 F         138.3638  152.5311  155.2550 F       1  UNL1       -0.2042
     26 C         138.1913  150.3639  156.6776 C.ar    1  UNL1        0.0296
     27 C         138.4554  148.8972  156.8476 C.ar    1  UNL1        0.0023
     28 C         142.0440  133.3150  155.8025 C.3     1  UNL1        0.0995
     29 C         143.5734  131.4273  154.6878 C.3     1  UNL1        0.1353
     30 C         143.7400  130.8788  153.3017 C.3     1  UNL1        0.0268
     31 C         142.7956  131.6126  152.3963 C.3     1  UNL1        0.0192
     32 C         142.0453  132.6145  153.2229 C.3     1  UNL1        0.0728
     33 N         142.5260  132.5000  154.6392 N.3     1  UNL1       -0.2628
     34 C         144.6471  129.2954  157.8584 C.3     1  UNL1        0.1149
     35 N         143.8979  129.7414  156.6378 N.am    1  UNL1       -0.2749
     36 C         142.7238  128.9474  156.1467 C.3     1  UNL1        0.1149
     37 C         144.3226  130.9813  155.9084 C.2     1  UNL1        0.2402
     38 O         145.4967  131.7753  156.3996 O.2     1  UNL1       -0.2734
@<TRIPOS>BOND
     1    34    35    1
     2    35    36    1
     3    35    37   am
     4    37    38    2
     5    29    37    1
     6    29    30    1
     7    30    31    1
     8    31    32    1
     9    32    33    1
    10    33    28    1
    11    28     1    1
    12     1     2   ar
    13     2     3   ar
    14     3     4   ar
    15     4     5   ar
    16     5     6   ar
    17     5     7    1
    18     7     8    1
    19     8     9    1
    20     9    11    1
    21    11    12    1
    22    11    13   am
    23    13    14    2
    24    13    15    1
    25    15    16   ar
    26    16    17   ar
    27    17    18   ar
    28    18    21    1
    29    21    22   ar
    30    22    23   ar
    31    23    24   ar
    32    24    25    1
    33    24    26   ar
    34    26    27   ar
    35    18    19   ar
    36    19    20   ar
    37     9    10    1
    38    33    29    1
    39     6     1   ar
    40    20    15   ar
    41    10     4    1
    42    27    21   ar
@<TRIPOS>MOLECULE
*****
 38 42 0 0 0
SMALL
GASTEIGER

@<TRIPOS>ATOM
      1 C         142.6811  134.2863  154.5690 C.ar    1  UNL1       -0.0065
      2 C         143.4641  133.6931  155.7025 C.ar    1  UNL1       -0.0033
      3 C         143.5604  134.4220  157.0099 C.ar    1  UNL1       -0.0048
      4 C         142.8736  135.7441  157.1838 C.ar    1  UNL1       -0.0245
      5 C         142.0905  136.3374  156.0504 C.ar    1  UNL1       -0.0263
      6 C         141.9942  135.6085  154.7429 C.ar    1  UNL1       -0.0075
      7 C         141.4037  137.6595  156.2243 C.3     1  UNL1        0.0277
      8 C         141.5000  138.3884  157.5317 C.3     1  UNL1        0.0248
      9 C         142.2831  137.7952  158.6653 C.3     1  UNL1        0.0804
     10 C         142.9699  136.4731  158.4913 C.3     1  UNL1        0.0458
     11 N         142.3794  138.5241  159.9727 N.am    1  UNL1       -0.2756
     12 C         143.6135  139.3096  160.3044 C.3     1  UNL1        0.1151
     13 C         141.2416  138.4675  160.9485 C.2     1  UNL1        0.2490
     14 O         140.0075  137.6821  160.6169 O.2     1  UNL1       -0.2699
     15 C         141.3379  139.1965  162.2560 C.ar    1  UNL1        0.0536
     16 C         141.8505  138.4872  163.4741 C.ar    1  UNL1        0.0045
     17 C         141.9468  139.2161  164.7815 C.ar    1  UNL1        0.0001
     18 C         141.5305  140.6544  164.8707 C.ar    1  UNL1        0.0000
     19 C         141.0178  141.3638  163.6525 C.ar    1  UNL1        0.0001
     20 C         140.9215  140.6348  162.3452 C.ar    1  UNL1        0.0045
     21 C         141.6268  141.3834  166.1782 C.ar    1  UNL1        0.0001
     22 C         142.9461  141.4853  166.8846 C.ar    1  UNL1        0.0023
     23 C         143.0424  142.2143  168.1920 C.ar    1  UNL1        0.0296
     24 C         141.8194  142.8413  168.7930 C.ar    1  UNL1        0.1401
     25 F         141.9157  143.5702  170.1005 F       1  UNL1       -0.2042
     26 C         140.5001  142.7393  168.0866 C.ar    1  UNL1        0.0296
     27 C         140.4038  142.0104  166.7792 C.ar    1  UNL1        0.0023
     28 C         142.5847  133.5574  153.2615 C.3     1  UNL1        0.0995
     29 C         141.9760  130.9554  153.3259 C.3     1  UNL1        0.1353
     30 C         140.7365  130.1495  153.0729 C.3     1  UNL1        0.0268
     31 C         139.6339  131.0979  152.7056 C.3     1  UNL1        0.0192
     32 C         140.1921  132.4899  152.7315 C.3     1  UNL1        0.0728
     33 N         141.6396  132.4019  153.1149 N.3     1  UNL1       -0.2628
     34 C         144.9436  129.5465  155.5526 C.3     1  UNL1        0.1149
     35 N         143.6030  130.0915  155.1579 N.am    1  UNL1       -0.2749
     36 C         142.5486  130.3174  156.2008 C.3     1  UNL1        0.1149
     37 C         143.3167  130.4105  153.7206 C.2     1  UNL1        0.2402
     38 O         144.3710  130.1846  152.6778 O.2     1  UNL1       -0.2734
@<TRIPOS>BOND
     1    34    35    1
     2    35    36    1
     3    35    37   am
     4    37    38    2
     5    29    37    1
     6    29    30    1
     7    30    31    1
     8    31    32    1
     9    32    33    1
    10    33    28    1
    11    28     1    1
    12     1     2   ar
    13     2     3   ar
    14     3     4   ar
    15     4     5   ar
    16     5     6   ar
    17     5     7    1
    18     7     8    1
    19     8     9    1
    20     9    11    1
    21    11    12    1
    22    11    13   am
    23    13    14    2
    24    13    15    1
    25    15    16   ar
    26    16    17   ar
    27    17    18   ar
    28    18    21    1
    29    21    22   ar
    30    22    23   ar
    31    23    24   ar
    32    24    25    1
    33    24    26   ar
    34    26    27   ar
    35    18    19   ar
    36    19    20   ar
    37     9    10    1
    38    33    29    1
    39     6     1   ar
    40    20    15   ar
    41    10     4    1
    42    27    21   ar
@<TRIPOS>MOLECULE
*****
 38 42 0 0 0
SMALL
GASTEIGER

@<TRIPOS>ATOM
      1 C         143.4823  135.0426  156.0316 C.ar    1  UNL1       -0.0065
      2 C         143.8006  134.2996  157.2951 C.ar    1  UNL1       -0.0033
      3 C         143.5913  134.9590  158.6259 C.ar    1  UNL1       -0.0048
      4 C         143.0636  136.3615  158.6933 C.ar    1  UNL1       -0.0245
      5 C         142.7453  137.1046  157.4298 C.ar    1  UNL1       -0.0263
      6 C         142.9546  136.4451  156.0990 C.ar    1  UNL1       -0.0075
      7 C         142.2176  138.5071  157.4972 C.3     1  UNL1        0.0277
      8 C         142.0082  139.1665  158.8281 C.3     1  UNL1        0.0248
      9 C         142.3266  138.4234  160.0917 C.3     1  UNL1        0.0804
     10 C         142.8543  137.0209  160.0243 C.3     1  UNL1        0.0458
     11 N         142.1172  139.0829  161.4225 N.am    1  UNL1       -0.2756
     12 C         142.9973  140.2231  161.8413 C.3     1  UNL1        0.1151
     13 C         141.0278  138.6021  162.3347 C.2     1  UNL1        0.2490
     14 O         140.1478  137.4619  161.9160 O.2     1  UNL1       -0.2699
     15 C         140.8185  139.2616  163.6657 C.ar    1  UNL1        0.0536
     16 C         141.5764  138.7818  164.8679 C.ar    1  UNL1        0.0045
     17 C         141.3671  139.4413  166.1987 C.ar    1  UNL1        0.0001
     18 C         140.3998  140.5806  166.3273 C.ar    1  UNL1        0.0000
     19 C         139.6419  141.0603  165.1251 C.ar    1  UNL1        0.0001
     20 C         139.8513  140.4008  163.7943 C.ar    1  UNL1        0.0045
     21 C         140.1905  141.2401  167.6583 C.ar    1  UNL1        0.0001
     22 C         140.6223  142.6613  167.8673 C.ar    1  UNL1        0.0023
     23 C         140.4130  143.3207  169.1981 C.ar    1  UNL1        0.0296
     24 C         139.7719  142.5589  170.3201 C.ar    1  UNL1        0.1401
     25 F         139.5625  143.2184  171.6510 F       1  UNL1       -0.2042
     26 C         139.3401  141.1377  170.1111 C.ar    1  UNL1        0.0296
     27 C         139.5494  140.4783  168.7802 C.ar    1  UNL1        0.0023
     28 C         143.6916  134.3832  154.7006 C.3     1  UNL1        0.0995
     29 C         142.1742  132.2121  154.3418 C.3     1  UNL1        0.1353
     30 C         141.0042  131.8683  153.4684 C.3     1  UNL1        0.0268
     31 C         140.6752  133.0738  152.6386 C.3     1  UNL1        0.0192
     32 C         141.6419  134.1626  152.9992 C.3     1  UNL1        0.0728
     33 N         142.5683  133.6300  154.0518 N.3     1  UNL1       -0.2628
     34 C         144.5215  129.3943  155.8586 C.3     1  UNL1        0.1149
     35 N         143.8615  130.3081  154.8689 N.am    1  UNL1       -0.2749
     36 C         144.2288  130.2316  153.4165 C.3     1  UNL1        0.1149
     37 C         142.8342  131.2983  155.3315 C.2     1  UNL1        0.2402
     38 O         142.4669  131.3748  156.7839 O.2     1  UNL1       -0.2734
@<TRIPOS>BOND
     1    34    35    1
     2    35    36    1
     3    35    37   am
     4    37    38    2
     5    29    37    1
     6    29    30    1
     7    30    31    1
     8    31    32    1
     9    32    33    1
    10    33    28    1
    11    28     1    1
    12     1     2   ar
    13     2     3   ar
    14     3     4   ar
    15     4     5   ar
    16     5     6   ar
    17     5     7    1
    18     7     8    1
    19     8     9    1
    20     9    11    1
    21    11    12    1
    22    11    13   am
    23    13    14    2
    24    13    15    1
    25    15    16   ar
    26    16    17   ar
    27    17    18   ar
    28    18    21    1
    29    21    22   ar
    30    22    23   ar
    31    23    24   ar
    32    24    25    1
    33    24    26   ar
    34    26    27   ar
    35    18    19   ar
    36    19    20   ar
    37     9    10    1
    38    33    29    1
    39     6     1   ar
    40    20    15   ar
    41    10     4    1
    42    27    21   ar
@<TRIPOS>MOLECULE
*****
 38 42 0 0 0
SMALL
GASTEIGER

@<TRIPOS>ATOM
      1 C         141.2785  143.3646  159.4119 C.ar    1  UNL1       -0.0065
      2 C         140.0770  142.4676  159.4537 C.ar    1  UNL1       -0.0033
      3 C         140.1233  141.1207  158.7953 C.ar    1  UNL1       -0.0048
      4 C         141.3712  140.6707  158.0950 C.ar    1  UNL1       -0.0245
      5 C         142.5727  141.5677  158.0532 C.ar    1  UNL1       -0.0263
      6 C         142.5264  142.9146  158.7116 C.ar    1  UNL1       -0.0075
      7 C         143.8206  141.1177  157.3529 C.3     1  UNL1        0.0277
      8 C         143.8669  139.7708  156.6945 C.3     1  UNL1        0.0248
      9 C         142.6654  138.8738  156.7363 C.3     1  UNL1        0.0804
     10 C         141.4175  139.3237  157.4365 C.3     1  UNL1        0.0458
     11 N         142.7117  137.5268  156.0778 N.am    1  UNL1       -0.2756
     12 C         142.6532  137.4204  154.5827 C.3     1  UNL1        0.1151
     13 C         142.8166  136.2862  156.9144 C.2     1  UNL1        0.2490
     14 O         142.8751  136.3925  158.4095 O.2     1  UNL1       -0.2699
     15 C         142.8629  134.9392  156.2559 C.ar    1  UNL1        0.0536
     16 C         141.6800  134.4436  155.4781 C.ar    1  UNL1        0.0045
     17 C         141.7264  133.0967  154.8197 C.ar    1  UNL1        0.0001
     18 C         142.9557  132.2454  154.9390 C.ar    1  UNL1        0.0000
     19 C         144.1386  132.7411  155.7168 C.ar    1  UNL1        0.0001
     20 C         144.0922  134.0880  156.3752 C.ar    1  UNL1        0.0045
     21 C         143.0021  130.8984  154.2804 C.ar    1  UNL1        0.0001
     22 C         143.7248  130.7251  152.9775 C.ar    1  UNL1        0.0023
     23 C         143.7711  129.3781  152.3191 C.ar    1  UNL1        0.0296
     24 C         143.0947  128.2046  152.9635 C.ar    1  UNL1        0.1401
     25 F         143.1411  126.8576  152.3050 F       1  UNL1       -0.2042
     26 C         142.3720  128.3780  154.2664 C.ar    1  UNL1        0.0296
     27 C         142.3257  129.7249  154.9249 C.ar    1  UNL1        0.0023
     28 C         141.2322  144.7116  160.0704 C.3     1  UNL1        0.0995
     29 C         141.8634  144.4449  162.6540 C.3     1  UNL1        0.1353
     30 C         141.1602  144.7152  163.9511 C.3     1  UNL1        0.0268
     31 C         139.7976  145.2572  163.6355 C.3     1  UNL1        0.0192
     32 C         139.6588  145.3218  162.1433 C.3     1  UNL1        0.0728
     33 N         140.9355  144.8198  161.5367 N.3     1  UNL1       -0.2628
     34 C         144.8510  141.8672  162.2297 C.3     1  UNL1        0.1149
     35 N         143.4634  142.4160  162.3826 N.am    1  UNL1       -0.2749
     36 C         142.2880  141.4846  162.4169 C.3     1  UNL1        0.1149
     37 C         143.2510  143.8961  162.5012 C.2     1  UNL1        0.2402
     38 O         144.4264  144.8275  162.4668 O.2     1  UNL1       -0.2734
@<TRIPOS>BOND
     1    34    35    1
     2    35    36    1
     3    35    37   am
     4    37    38    2
     5    29    37    1
     6    29    30    1
     7    30    31    1
     8    31    32    1
     9    32    33    1
    10    33    28    1
    11    28     1    1
    12     1     2   ar
    13     2     3   ar
    14     3     4   ar
    15     4     5   ar
    16     5     6   ar
    17     5     7    1
    18     7     8    1
    19     8     9    1
    20     9    11    1
    21    11    12    1
    22    11    13   am
    23    13    14    2
    24    13    15    1
    25    15    16   ar
    26    16    17   ar
    27    17    18   ar
    28    18    21    1
    29    21    22   ar
    30    22    23   ar
    31    23    24   ar
    32    24    25    1
    33    24    26   ar
    34    26    27   ar
    35    18    19   ar
    36    19    20   ar
    37     9    10    1
    38    33    29    1
    39     6     1   ar
    40    20    15   ar
    41    10     4    1
    42    27    21   ar
@<TRIPOS>MOLECULE
*****
 38 42 0 0 0
SMALL
GASTEIGER

@<TRIPOS>ATOM
      1 C         142.0909  134.7880  155.4620 C.ar    1  UNL1       -0.0065
      2 C         143.3125  135.6583  155.4640 C.ar    1  UNL1       -0.0033
      3 C         143.1729  137.1471  155.3470 C.ar    1  UNL1       -0.0048
      4 C         141.8115  137.7657  155.2280 C.ar    1  UNL1       -0.0245
      5 C         140.5899  136.8954  155.2260 C.ar    1  UNL1       -0.0263
      6 C         140.7295  135.4065  155.3430 C.ar    1  UNL1       -0.0075
      7 C         139.2285  137.5140  155.1069 C.3     1  UNL1        0.0277
      8 C         139.0889  139.0028  154.9899 C.3     1  UNL1        0.0248
      9 C         140.3106  139.8732  154.9919 C.3     1  UNL1        0.0804
     10 C         141.6719  139.2546  155.1109 C.3     1  UNL1        0.0458
     11 N         140.1709  141.3621  154.8749 N.am    1  UNL1       -0.2756
     12 C         140.5367  142.0513  153.5937 C.3     1  UNL1        0.1151
     13 C         139.6656  142.1618  156.0390 C.2     1  UNL1        0.2490
     14 O         139.2998  141.4726  157.3201 O.2     1  UNL1       -0.2699
     15 C         139.5259  143.6507  155.9219 C.ar    1  UNL1        0.0536
     16 C         138.2777  144.2433  155.3383 C.ar    1  UNL1        0.0045
     17 C         138.1381  145.7322  155.2212 C.ar    1  UNL1        0.0001
     18 C         139.2467  146.6284  155.6878 C.ar    1  UNL1        0.0000
     19 C         140.4950  146.0358  156.2714 C.ar    1  UNL1        0.0001
     20 C         140.6346  144.5469  156.3884 C.ar    1  UNL1        0.0045
     21 C         139.1071  148.1174  155.5707 C.ar    1  UNL1        0.0001
     22 C         138.4718  148.9007  156.6810 C.ar    1  UNL1        0.0023
     23 C         138.3322  150.3896  156.5639 C.ar    1  UNL1        0.0296
     24 C         138.8278  151.0951  155.3365 C.ar    1  UNL1        0.1401
     25 F         138.6882  152.5840  155.2194 F       1  UNL1       -0.2042
     26 C         139.4631  150.3118  154.2262 C.ar    1  UNL1        0.0296
     27 C         139.6027  148.8229  154.3433 C.ar    1  UNL1        0.0023
     28 C         142.2305  133.2990  155.5790 C.3     1  UNL1        0.0995
     29 C         144.1032  131.4301  155.9601 C.3     1  UNL1        0.1353
     30 C         145.2140  131.2274  156.9475 C.3     1  UNL1        0.0268
     31 C         145.2002  132.3826  157.9043 C.3     1  UNL1        0.0192
     32 C         144.0809  133.2992  157.5081 C.3     1  UNL1        0.0728
     33 N         143.4029  132.7106  156.3065 N.3     1  UNL1       -0.2628
     34 C         142.6817  128.3105  153.9607 C.3     1  UNL1        0.1149
     35 N         143.0308  129.2273  155.0954 N.am    1  UNL1       -0.2749
     36 C         142.6566  128.8581  156.5004 C.3     1  UNL1        0.1149
     37 C         143.7541  130.5133  154.8253 C.2     1  UNL1        0.2402
     38 O         144.1283  130.8825  153.4204 O.2     1  UNL1       -0.2734
@<TRIPOS>BOND
     1    34    35    1
     2    35    36    1
     3    35    37   am
     4    37    38    2
     5    29    37    1
     6    29    30    1
     7    30    31    1
     8    31    32    1
     9    32    33    1
    10    33    28    1
    11    28     1    1
    12     1     2   ar
    13     2     3   ar
    14     3     4   ar
    15     4     5   ar
    16     5     6   ar
    17     5     7    1
    18     7     8    1
    19     8     9    1
    20     9    11    1
    21    11    12    1
    22    11    13   am
    23    13    14    2
    24    13    15    1
    25    15    16   ar
    26    16    17   ar
    27    17    18   ar
    28    18    21    1
    29    21    22   ar
    30    22    23   ar
    31    23    24   ar
    32    24    25    1
    33    24    26   ar
    34    26    27   ar
    35    18    19   ar
    36    19    20   ar
    37     9    10    1
    38    33    29    1
    39     6     1   ar
    40    20    15   ar
    41    10     4    1
    42    27    21   ar
@<TRIPOS>MOLECULE
*****
 38 42 0 0 0
SMALL
GASTEIGER

@<TRIPOS>ATOM
      1 C         141.8590  144.3065  154.5462 C.ar    1  UNL1       -0.0065
      2 C         140.9670  143.5064  153.6438 C.ar    1  UNL1       -0.0033
      3 C         140.8822  142.0172  153.8014 C.ar    1  UNL1       -0.0048
      4 C         141.6894  141.3280  154.8614 C.ar    1  UNL1       -0.0245
      5 C         142.5813  142.1280  155.7637 C.ar    1  UNL1       -0.0263
      6 C         142.6661  143.6173  155.6061 C.ar    1  UNL1       -0.0075
      7 C         143.3885  141.4388  156.8237 C.3     1  UNL1        0.0277
      8 C         143.3037  139.9496  156.9813 C.3     1  UNL1        0.0248
      9 C         142.4117  139.1495  156.0789 C.3     1  UNL1        0.0804
     10 C         141.6045  139.8387  155.0190 C.3     1  UNL1        0.0458
     11 N         142.3269  137.6602  156.2365 N.am    1  UNL1       -0.2756
     12 C         141.0380  137.0235  156.6649 C.3     1  UNL1        0.1151
     13 C         143.5310  136.8076  155.9658 C.2     1  UNL1        0.2490
     14 O         144.8198  137.4442  155.5375 O.2     1  UNL1       -0.2699
     15 C         143.4461  135.3182  156.1234 C.ar    1  UNL1        0.0536
     16 C         143.7198  134.6884  157.4570 C.ar    1  UNL1        0.0045
     17 C         143.6349  133.1992  157.6145 C.ar    1  UNL1        0.0001
     18 C         143.2764  132.3397  156.4386 C.ar    1  UNL1        0.0000
     19 C         143.0027  132.9696  155.1050 C.ar    1  UNL1        0.0001
     20 C         143.0876  134.4588  154.9475 C.ar    1  UNL1        0.0045
     21 C         143.1915  130.8504  156.5962 C.ar    1  UNL1        0.0001
     22 C         143.9612  130.1666  157.6871 C.ar    1  UNL1        0.0023
     23 C         143.8763  128.6774  157.8447 C.ar    1  UNL1        0.0296
     24 C         143.0218  127.8719  156.9114 C.ar    1  UNL1        0.1401
     25 F         142.9370  126.3826  157.0690 F       1  UNL1       -0.2042
     26 C         142.2522  128.5557  155.8205 C.ar    1  UNL1        0.0296
     27 C         142.3371  130.0449  155.6629 C.ar    1  UNL1        0.0023
     28 C         141.9438  145.7958  154.3886 C.3     1  UNL1        0.0995
     29 C         140.0496  146.5549  156.1152 C.3     1  UNL1        0.1353
     30 C         138.9876  147.6142  156.1265 C.3     1  UNL1        0.0268
     31 C         139.0790  148.3760  154.8376 C.3     1  UNL1        0.0192
     32 C         140.1975  147.7875  154.0297 C.3     1  UNL1        0.0728
     33 N         140.7974  146.6621  154.8193 N.3     1  UNL1       -0.2628
     34 C         139.8221  143.2794  158.3444 C.3     1  UNL1        0.1149
     35 N         139.5548  144.2716  157.2516 N.am    1  UNL1       -0.2749
     36 C         138.5252  143.9726  156.2024 C.3     1  UNL1        0.1149
     37 C         140.3169  145.5628  157.2079 C.2     1  UNL1        0.2402
     38 O         141.3465  145.8618  158.2571 O.2     1  UNL1       -0.2734
@<TRIPOS>BOND
     1    34    35    1
     2    35    36    1
     3    35    37   am
     4    37    38    2
     5    29    37    1
     6    29    30    1
     7    30    31    1
     8    31    32    1
     9    32    33    1
    10    33    28    1
    11    28     1    1
    12     1     2   ar
    13     2     3   ar
    14     3     4   ar
    15     4     5   ar
    16     5     6   ar
    17     5     7    1
    18     7     8    1
    19     8     9    1
    20     9    11    1
    21    11    12    1
    22    11    13   am
    23    13    14    2
    24    13    15    1
    25    15    16   ar
    26    16    17   ar
    27    17    18   ar
    28    18    21    1
    29    21    22   ar
    30    22    23   ar
    31    23    24   ar
    32    24    25    1
    33    24    26   ar
    34    26    27   ar
    35    18    19   ar
    36    19    20   ar
    37     9    10    1
    38    33    29    1
    39     6     1   ar
    40    20    15   ar
    41    10     4    1
    42    27    21   ar
@<TRIPOS>MOLECULE
*****
 38 42 0 0 0
SMALL
GASTEIGER

@<TRIPOS>ATOM
      1 C         141.5303  132.7750  154.3511 C.ar    1  UNL1       -0.0065
      2 C         141.0512  133.3830  153.0663 C.ar    1  UNL1       -0.0033
      3 C         140.9478  134.8736  152.9347 C.ar    1  UNL1       -0.0048
      4 C         141.3235  135.7562  154.0879 C.ar    1  UNL1       -0.0245
      5 C         141.8026  135.1483  155.3727 C.ar    1  UNL1       -0.0263
      6 C         141.9060  133.6577  155.5043 C.ar    1  UNL1       -0.0075
      7 C         142.1783  136.0309  156.5259 C.3     1  UNL1        0.0277
      8 C         142.0748  137.5215  156.3943 C.3     1  UNL1        0.0248
      9 C         141.5957  138.1295  155.1094 C.3     1  UNL1        0.0804
     10 C         141.2201  137.2469  153.9562 C.3     1  UNL1        0.0458
     11 N         141.4923  139.6201  154.9778 N.am    1  UNL1       -0.2756
     12 C         142.6859  140.4196  154.5460 C.3     1  UNL1        0.1151
     13 C         140.1954  140.3114  155.2779 C.2     1  UNL1        0.2490
     14 O         139.0018  139.5120  155.7096 O.2     1  UNL1       -0.2699
     15 C         140.0920  141.8021  155.1463 C.ar    1  UNL1        0.0536
     16 C         139.6615  142.4121  153.8453 C.ar    1  UNL1        0.0045
     17 C         139.5582  143.9027  153.7137 C.ar    1  UNL1        0.0001
     18 C         139.8853  144.7833  154.8831 C.ar    1  UNL1        0.0000
     19 C         140.3158  144.1733  156.1841 C.ar    1  UNL1        0.0001
     20 C         140.4191  142.6827  156.3157 C.ar    1  UNL1        0.0045
     21 C         139.7819  146.2740  154.7515 C.ar    1  UNL1        0.0001
     22 C         138.9305  147.0542  155.7087 C.ar    1  UNL1        0.0023
     23 C         138.8272  148.5448  155.5771 C.ar    1  UNL1        0.0296
     24 C         139.5753  149.2552  154.4882 C.ar    1  UNL1        0.1401
     25 F         139.4719  150.7459  154.3565 F       1  UNL1       -0.2042
     26 C         140.4267  148.4750  153.5309 C.ar    1  UNL1        0.0296
     27 C         140.5300  146.9844  153.6626 C.ar    1  UNL1        0.0023
     28 C         141.6337  131.2844  154.4827 C.3     1  UNL1        0.0995
     29 C         144.0757  130.1995  154.4126 C.3     1  UNL1        0.1353
     30 C         144.8811  129.4656  153.3817 C.3     1  UNL1        0.0268
     31 C         144.0528  129.3596  152.1356 C.3     1  UNL1        0.0192
     32 C         142.7356  130.0281  152.3964 C.3     1  UNL1        0.0728
     33 N         142.7497  130.5471  153.8037 N.3     1  UNL1       -0.2628
     34 C         144.6897  129.8958  158.3217 C.3     1  UNL1        0.1149
     35 N         144.2468  129.5672  156.9267 N.am    1  UNL1       -0.2749
     36 C         143.5319  128.2776  156.6510 C.3     1  UNL1        0.1149
     37 C         144.5186  130.5281  155.8075 C.2     1  UNL1        0.2402
     38 O         145.2335  131.8177  156.0833 O.2     1  UNL1       -0.2734
@<TRIPOS>BOND
     1    34    35    1
     2    35    36    1
     3    35    37   am
     4    37    38    2
     5    29    37    1
     6    29    30    1
     7    30    31    1
     8    31    32    1
     9    32    33    1
    10    33    28    1
    11    28     1    1
    12     1     2   ar
    13     2     3   ar
    14     3     4   ar
    15     4     5   ar
    16     5     6   ar
    17     5     7    1
    18     7     8    1
    19     8     9    1
    20     9    11    1
    21    11    12    1
    22    11    13   am
    23    13    14    2
    24    13    15    1
    25    15    16   ar
    26    16    17   ar
    27    17    18   ar
    28    18    21    1
    29    21    22   ar
    30    22    23   ar
    31    23    24   ar
    32    24    25    1
    33    24    26   ar
    34    26    27   ar
    35    18    19   ar
    36    19    20   ar
    37     9    10    1
    38    33    29    1
    39     6     1   ar
    40    20    15   ar
    41    10     4    1
    42    27    21   ar
@<TRIPOS>MOLECULE
*****
 38 42 0 0 0
SMALL
GASTEIGER

@<TRIPOS>ATOM
      1 C         143.4042  131.0433  154.9608 C.ar    1  UNL1       -0.0065
      2 C         142.9059  131.6240  153.6707 C.ar    1  UNL1       -0.0033
      3 C         142.5710  133.0836  153.5851 C.ar    1  UNL1       -0.0048
      4 C         142.7343  133.9625  154.7896 C.ar    1  UNL1       -0.0245
      5 C         143.2326  133.3818  156.0797 C.ar    1  UNL1       -0.0263
      6 C         143.5675  131.9222  156.1653 C.ar    1  UNL1       -0.0075
      7 C         143.3960  134.2607  157.2843 C.3     1  UNL1        0.0277
      8 C         143.0610  135.7202  157.1987 C.3     1  UNL1        0.0248
      9 C         142.5627  136.3010  155.9085 C.3     1  UNL1        0.0804
     10 C         142.3994  135.4221  154.7040 C.3     1  UNL1        0.0458
     11 N         142.2278  137.7606  155.8229 N.am    1  UNL1       -0.2756
     12 C         143.1989  138.7175  155.1973 C.3     1  UNL1        0.1151
     13 C         140.9218  138.2634  156.3629 C.2     1  UNL1        0.2490
     14 O         139.9507  137.3065  156.9884 O.2     1  UNL1       -0.2699
     15 C         140.5869  139.7231  156.2772 C.ar    1  UNL1        0.0536
     16 C         140.9871  140.6506  157.3860 C.ar    1  UNL1        0.0045
     17 C         140.6522  142.1102  157.3003 C.ar    1  UNL1        0.0001
     18 C         139.9171  142.6422  156.1059 C.ar    1  UNL1        0.0000
     19 C         139.5170  141.7146  154.9971 C.ar    1  UNL1        0.0001
     20 C         139.8519  140.2551  155.0828 C.ar    1  UNL1        0.0045
     21 C         139.5822  144.1019  156.0203 C.ar    1  UNL1        0.0001
     22 C         140.3513  145.0971  156.8376 C.ar    1  UNL1        0.0023
     23 C         140.0164  146.5566  156.7519 C.ar    1  UNL1        0.0296
     24 C         138.9124  147.0211  155.8489 C.ar    1  UNL1        0.1401
     25 F         138.5775  148.4808  155.7633 F       1  UNL1       -0.2042
     26 C         138.1433  146.0260  155.0316 C.ar    1  UNL1        0.0296
     27 C         138.4782  144.5664  155.1173 C.ar    1  UNL1        0.0023
     28 C         143.7391  129.5836  155.0465 C.3     1  UNL1        0.0995
     29 C         141.5635  128.0423  155.2360 C.3     1  UNL1        0.1353
     30 C         140.9707  127.1708  156.3033 C.3     1  UNL1        0.0268
     31 C         141.8659  127.2359  157.5051 C.3     1  UNL1        0.0192
     32 C         143.0119  128.1476  157.1805 C.3     1  UNL1        0.0728
     33 N         142.8250  128.6461  155.7782 N.3     1  UNL1       -0.2628
     34 C         139.4886  129.6440  152.2561 C.3     1  UNL1        0.1149
     35 N         140.0576  129.4162  153.6252 N.am    1  UNL1       -0.2749
     36 C         139.6895  130.3346  154.7527 C.3     1  UNL1        0.1149
     37 C         140.9945  128.2701  153.8669 C.2     1  UNL1        0.2402
     38 O         141.3626  127.3517  152.7394 O.2     1  UNL1       -0.2734
@<TRIPOS>BOND
     1    34    35    1
     2    35    36    1
     3    35    37   am
     4    37    38    2
     5    29    37    1
     6    29    30    1
     7    30    31    1
     8    31    32    1
     9    32    33    1
    10    33    28    1
    11    28     1    1
    12     1     2   ar
    13     2     3   ar
    14     3     4   ar
    15     4     5   ar
    16     5     6   ar
    17     5     7    1
    18     7     8    1
    19     8     9    1
    20     9    11    1
    21    11    12    1
    22    11    13   am
    23    13    14    2
    24    13    15    1
    25    15    16   ar
    26    16    17   ar
    27    17    18   ar
    28    18    21    1
    29    21    22   ar
    30    22    23   ar
    31    23    24   ar
    32    24    25    1
    33    24    26   ar
    34    26    27   ar
    35    18    19   ar
    36    19    20   ar
    37     9    10    1
    38    33    29    1
    39     6     1   ar
    40    20    15   ar
    41    10     4    1
    42    27    21   ar
