@<TRIPOS>MOLECULE
*****
 36 40 0 0 0
SMALL
GASTEIGER

@<TRIPOS>ATOM
      1 N         141.8960  141.7911  167.5449 N.3     1  UNL1       -0.2640
      2 C         142.7031  140.8708  166.6779 C.3     1  UNL1        0.0981
      3 C         142.7425  139.4015  166.9767 C.3     1  UNL1        0.0224
      4 C         143.5495  138.4812  166.1097 C.3     1  UNL1        0.0065
      5 C         144.3173  139.0303  164.9439 C.3     1  UNL1        0.0277
      6 C         144.2779  140.4997  164.6451 C.ar    1  UNL1       -0.0073
      7 C         145.0456  141.0488  163.4793 C.ar    1  UNL1       -0.0015
      8 C         145.0062  142.5182  163.1804 C.ar    1  UNL1        0.0203
      9 C         144.1991  143.4385  164.0474 C.ar    1  UNL1        0.0985
     10 N         143.4314  142.8894  165.2133 N.ar    1  UNL1       -0.2471
     11 C         143.4708  141.4200  165.5121 C.ar    1  UNL1        0.0695
     12 C         142.5463  142.4992  168.6964 C.3     1  UNL1        0.0728
     13 C         143.3443  141.7218  169.7008 C.3     1  UNL1        0.0188
     14 C         142.6977  140.6119  170.4755 C.3     1  UNL1        0.0183
     15 N         140.3879  139.5131  170.9306 N.3     1  UNL1       -0.3211
     16 C         141.2640  140.7302  170.9006 C.3     1  UNL1        0.0652
     17 H         139.4523  139.7752  171.2410 H       1  UNL1        0.1189
     18 H         140.7804  138.8274  171.5757 H       1  UNL1        0.1189
     19 C         140.4387  142.0034  167.2605 C.3     1  UNL1        0.1204
     20 C         140.0050  142.5428  165.9297 C.ar    1  UNL1        0.0909
     21 N         140.1139  144.0113  165.6441 N.ar    1  UNL1       -0.2453
     22 C         139.6802  144.5506  164.3133 C.ar    1  UNL1        0.0986
     23 C         139.1377  143.6215  163.2681 C.ar    1  UNL1        0.0221
     24 C         139.0288  142.1530  163.5538 C.ar    1  UNL1        0.0199
     25 C         138.5370  141.0032  162.7254 C.ar    1  UNL1        0.0173
     26 C         137.9879  140.9329  161.3314 C.ar    1  UNL1        0.0015
     27 C         137.5685  139.6126  160.7562 C.ar    1  UNL1        0.0001
     28 C         137.6983  138.3626  161.5751 C.ar    1  UNL1        0.0015
     29 C         138.2474  138.4328  162.9691 C.ar    1  UNL1        0.0172
     30 C         138.6668  139.7531  163.5443 C.ar    1  UNL1        0.0602
     31 N         139.2387  140.1304  164.8787 N.ar    1  UNL1       -0.3208
     32 C         139.4624  141.6136  164.8845 C.ar    1  UNL1        0.0753
     33 C         139.5349  139.1896  166.0088 C.3     1  UNL1        0.1477
     34 C         138.5062  138.9488  167.0735 C.2     1  UNL1        0.0732
     35 O         137.2532  138.1909  166.7480 O.co2   1  UNL1       -0.5472
     36 O         138.7302  139.4658  168.4636 O.co2   1  UNL1       -0.5472
@<TRIPOS>UNITY_ATOM_ATTR
35 1
charge -1
@<TRIPOS>BOND
     1    15    16    1
     2    16    14    1
     3    14    13    1
     4    13    12    1
     5    12     1    1
     6     1    19    1
     7    19    20    1
     8    20    21   ar
     9    21    22   ar
    10    22    23   ar
    11    23    24   ar
    12    24    25   ar
    13    25    26   ar
    14    26    27   ar
    15    27    28   ar
    16    28    29   ar
    17    29    30   ar
    18    30    31   ar
    19    31    33    1
    20    33    34    1
    21    34    35   ar
    22    34    36   ar
    23    31    32   ar
    24     2     1    1
    25     2     3    1
    26     3     4    1
    27     4     5    1
    28     5     6    1
    29     6     7   ar
    30     7     8   ar
    31     8     9   ar
    32     9    10   ar
    33    10    11   ar
    34    32    20   ar
    35    11     2    1
    36    32    24   ar
    37    11     6   ar
    38    30    25   ar
    39    15    17    1
    40    15    18    1
@<TRIPOS>MOLECULE
*****
 36 40 0 0 0
SMALL
GASTEIGER

@<TRIPOS>ATOM
      1 N         140.6004  141.9298  161.8497 N.3     1  UNL1       -0.2640
      2 C         141.8974  142.4850  162.3591 C.3     1  UNL1        0.0981
      3 C         142.1595  143.9604  162.2924 C.3     1  UNL1        0.0224
      4 C         143.4565  144.5155  162.8018 C.3     1  UNL1        0.0065
      5 C         144.4915  143.5953  163.3780 C.3     1  UNL1        0.0277
      6 C         144.2294  142.1199  163.4447 C.ar    1  UNL1       -0.0073
      7 C         145.2644  141.1996  164.0208 C.ar    1  UNL1       -0.0015
      8 C         145.0024  139.7242  164.0875 C.ar    1  UNL1        0.0203
      9 C         143.7054  139.1690  163.5781 C.ar    1  UNL1        0.0985
     10 N         142.6704  140.0892  163.0019 N.ar    1  UNL1       -0.2471
     11 C         142.9324  141.5647  162.9352 C.ar    1  UNL1        0.0695
     12 C         140.4948  141.4508  160.4321 C.3     1  UNL1        0.0728
     13 C         140.3698  139.9841  160.1434 C.3     1  UNL1        0.0188
     14 C         139.1197  139.4481  159.5109 C.3     1  UNL1        0.0183
     15 N         137.0642  139.5603  161.0958 N.3     1  UNL1       -0.3211
     16 C         137.7866  140.0346  159.8698 C.3     1  UNL1        0.0652
     17 H         136.1810  140.0625  161.1857 H       1  UNL1        0.1189
     18 H         137.6404  139.7357  161.9191 H       1  UNL1        0.1189
     19 C         139.4090  141.8537  162.7577 C.3     1  UNL1        0.1204
     20 C         139.3348  140.7871  163.8098 C.ar    1  UNL1        0.0909
     21 N         139.0252  139.3716  163.4222 N.ar    1  UNL1       -0.2453
     22 C         138.9510  138.3050  164.4743 C.ar    1  UNL1        0.0986
     23 C         139.1864  138.6540  165.9140 C.ar    1  UNL1        0.0221
     24 C         139.4960  140.0696  166.3016 C.ar    1  UNL1        0.0199
     25 C         139.7724  140.7089  167.6301 C.ar    1  UNL1        0.0173
     26 C         139.8326  140.1489  169.0203 C.ar    1  UNL1        0.0015
     27 C         140.1378  141.0506  170.1795 C.ar    1  UNL1        0.0001
     28 C         140.3828  142.5123  169.9485 C.ar    1  UNL1        0.0015
     29 C         140.3226  143.0723  168.5583 C.ar    1  UNL1        0.0172
     30 C         140.0174  142.1706  167.3991 C.ar    1  UNL1        0.0602
     31 N         139.8925  142.4346  165.9278 N.ar    1  UNL1       -0.3208
     32 C         139.5702  141.1361  165.2495 C.ar    1  UNL1        0.0753
     33 C         140.0603  143.7638  165.2533 C.3     1  UNL1        0.1477
     34 C         138.8768  144.6670  165.0706 C.2     1  UNL1        0.0732
     35 O         138.3406  145.4456  166.2353 O.co2   1  UNL1       -0.5472
     36 O         138.2293  144.7917  163.7233 O.co2   1  UNL1       -0.5472
@<TRIPOS>UNITY_ATOM_ATTR
35 1
charge -1
@<TRIPOS>BOND
     1    15    16    1
     2    16    14    1
     3    14    13    1
     4    13    12    1
     5    12     1    1
     6     1    19    1
     7    19    20    1
     8    20    21   ar
     9    21    22   ar
    10    22    23   ar
    11    23    24   ar
    12    24    25   ar
    13    25    26   ar
    14    26    27   ar
    15    27    28   ar
    16    28    29   ar
    17    29    30   ar
    18    30    31   ar
    19    31    33    1
    20    33    34    1
    21    34    35   ar
    22    34    36   ar
    23    31    32   ar
    24     2     1    1
    25     2     3    1
    26     3     4    1
    27     4     5    1
    28     5     6    1
    29     6     7   ar
    30     7     8   ar
    31     8     9   ar
    32     9    10   ar
    33    10    11   ar
    34    32    20   ar
    35    11     2    1
    36    32    24   ar
    37    11     6   ar
    38    30    25   ar
    39    15    17    1
    40    15    18    1
@<TRIPOS>MOLECULE
*****
 36 40 0 0 0
SMALL
GASTEIGER

@<TRIPOS>ATOM
      1 N         141.3682  141.5175  166.7126 N.3     1  UNL1       -0.2640
      2 C         142.4463  140.6991  166.0661 C.3     1  UNL1        0.0981
      3 C         142.6809  139.2849  166.5073 C.3     1  UNL1        0.0224
      4 C         143.7590  138.4665  165.8608 C.3     1  UNL1        0.0065
      5 C         144.6025  139.0624  164.7730 C.3     1  UNL1        0.0277
      6 C         144.3679  140.4767  164.3317 C.ar    1  UNL1       -0.0073
      7 C         145.2114  141.0726  163.2439 C.ar    1  UNL1       -0.0015
      8 C         144.9768  142.4869  162.8026 C.ar    1  UNL1        0.0203
      9 C         143.8987  143.3053  163.4491 C.ar    1  UNL1        0.0985
     10 N         143.0552  142.7094  164.5369 N.ar    1  UNL1       -0.2471
     11 C         143.2898  141.2950  164.9782 C.ar    1  UNL1        0.0695
     12 C         141.6861  142.3675  167.9070 C.3     1  UNL1        0.0728
     13 C         143.0780  142.3848  168.4661 C.3     1  UNL1        0.0188
     14 C         143.3121  142.0369  169.9063 C.3     1  UNL1        0.0183
     15 N         142.2672  140.5881  171.7928 N.3     1  UNL1       -0.3211
     16 C         142.8896  140.6972  170.4325 C.3     1  UNL1        0.0652
     17 H         142.0437  139.6121  171.9872 H       1  UNL1        0.1189
     18 H         141.4129  141.1448  171.8214 H       1  UNL1        0.1189
     19 C         139.9722  141.4859  166.1648 C.3     1  UNL1        0.1204
     20 C         139.5533  140.3795  165.2427 C.ar    1  UNL1        0.0909
     21 N         139.3944  138.9840  165.7693 N.ar    1  UNL1       -0.2453
     22 C         138.9754  137.8776  164.8472 C.ar    1  UNL1        0.0986
     23 C         138.7153  138.1667  163.3985 C.ar    1  UNL1        0.0221
     24 C         138.8741  139.5622  162.8719 C.ar    1  UNL1        0.0199
     25 C         138.6890  140.1452  161.5023 C.ar    1  UNL1        0.0173
     26 C         138.2824  139.5301  160.1961 C.ar    1  UNL1        0.0015
     27 C         138.1804  140.3817  158.9655 C.ar    1  UNL1        0.0001
     28 C         138.4850  141.8485  159.0412 C.ar    1  UNL1        0.0015
     29 C         138.8916  142.4637  160.3474 C.ar    1  UNL1        0.0172
     30 C         138.9935  141.6120  161.5779 C.ar    1  UNL1        0.0602
     31 N         139.3669  141.9355  162.9943 N.ar    1  UNL1       -0.3208
     32 C         139.2931  140.6686  163.7940 C.ar    1  UNL1        0.0753
     33 C         139.7473  143.2883  163.5188 C.3     1  UNL1        0.1477
     34 C         138.6859  144.3120  163.7933 C.2     1  UNL1        0.0732
     35 O         137.7931  144.7827  162.6836 O.co2   1  UNL1       -0.5472
     36 O         138.5172  144.8650  165.1774 O.co2   1  UNL1       -0.5472
@<TRIPOS>UNITY_ATOM_ATTR
35 1
charge -1
@<TRIPOS>BOND
     1    15    16    1
     2    16    14    1
     3    14    13    1
     4    13    12    1
     5    12     1    1
     6     1    19    1
     7    19    20    1
     8    20    21   ar
     9    21    22   ar
    10    22    23   ar
    11    23    24   ar
    12    24    25   ar
    13    25    26   ar
    14    26    27   ar
    15    27    28   ar
    16    28    29   ar
    17    29    30   ar
    18    30    31   ar
    19    31    33    1
    20    33    34    1
    21    34    35   ar
    22    34    36   ar
    23    31    32   ar
    24     2     1    1
    25     2     3    1
    26     3     4    1
    27     4     5    1
    28     5     6    1
    29     6     7   ar
    30     7     8   ar
    31     8     9   ar
    32     9    10   ar
    33    10    11   ar
    34    32    20   ar
    35    11     2    1
    36    32    24   ar
    37    11     6   ar
    38    30    25   ar
    39    15    17    1
    40    15    18    1
@<TRIPOS>MOLECULE
*****
 36 40 0 0 0
SMALL
GASTEIGER

@<TRIPOS>ATOM
      1 N         140.4941  141.4263  161.5467 N.3     1  UNL1       -0.2640
      2 C         141.6660  140.5233  161.7942 C.3     1  UNL1        0.0981
      3 C         141.6682  139.1289  161.2416 C.3     1  UNL1        0.0224
      4 C         142.8401  138.2259  161.4891 C.3     1  UNL1        0.0065
      5 C         144.0098  138.7174  162.2892 C.3     1  UNL1        0.0277
      6 C         144.0076  140.1118  162.8418 C.ar    1  UNL1       -0.0073
      7 C         145.1773  140.6033  163.6420 C.ar    1  UNL1       -0.0015
      8 C         145.1752  141.9978  164.1946 C.ar    1  UNL1        0.0203
      9 C         144.0032  142.9008  163.9471 C.ar    1  UNL1        0.0985
     10 N         142.8335  142.4094  163.1470 N.ar    1  UNL1       -0.2471
     11 C         142.8357  141.0148  162.5943 C.ar    1  UNL1        0.0695
     12 C         140.3964  142.1930  160.2610 C.3     1  UNL1        0.0728
     13 C         141.2339  143.4201  160.0540 C.3     1  UNL1        0.0188
     14 C         141.2153  144.5214  161.0722 C.3     1  UNL1        0.0183
     15 N         140.0496  146.6362  162.0305 N.3     1  UNL1       -0.3211
     16 C         140.3025  145.6975  160.8883 C.3     1  UNL1        0.0652
     17 H         139.4102  147.3721  161.7305 H       1  UNL1        0.1189
     18 H         140.9312  147.0529  162.3298 H       1  UNL1        0.1189
     19 C         139.4200  141.5627  162.5847 C.3     1  UNL1        0.1204
     20 C         139.3172  140.5583  163.6940 C.ar    1  UNL1        0.0909
     21 N         138.9745  139.1312  163.3842 N.ar    1  UNL1       -0.2453
     22 C         138.8717  138.1268  164.4935 C.ar    1  UNL1        0.0986
     23 C         139.1115  138.5495  165.9126 C.ar    1  UNL1        0.0221
     24 C         139.4542  139.9766  166.2224 C.ar    1  UNL1        0.0199
     25 C         139.7422  140.6819  167.5146 C.ar    1  UNL1        0.0173
     26 C         139.7850  140.1987  168.9339 C.ar    1  UNL1        0.0015
     27 C         140.1087  141.1558  170.0425 C.ar    1  UNL1        0.0001
     28 C         140.3895  142.5962  169.7318 C.ar    1  UNL1        0.0015
     29 C         140.3467  143.0794  168.3124 C.ar    1  UNL1        0.0172
     30 C         140.0230  142.1222  167.2038 C.ar    1  UNL1        0.0602
     31 N         139.9086  142.3071  165.7196 N.ar    1  UNL1       -0.3208
     32 C         139.5570  140.9810  165.1131 C.ar    1  UNL1        0.0753
     33 C         140.1103  143.5924  164.9731 C.3     1  UNL1        0.1477
     34 C         138.9673  144.5488  164.8038 C.2     1  UNL1        0.0732
     35 O         138.3021  144.6936  163.4671 O.co2   1  UNL1       -0.5472
     36 O         138.4893  145.3605  165.9712 O.co2   1  UNL1       -0.5472
@<TRIPOS>UNITY_ATOM_ATTR
35 1
charge -1
@<TRIPOS>BOND
     1    15    16    1
     2    16    14    1
     3    14    13    1
     4    13    12    1
     5    12     1    1
     6     1    19    1
     7    19    20    1
     8    20    21   ar
     9    21    22   ar
    10    22    23   ar
    11    23    24   ar
    12    24    25   ar
    13    25    26   ar
    14    26    27   ar
    15    27    28   ar
    16    28    29   ar
    17    29    30   ar
    18    30    31   ar
    19    31    33    1
    20    33    34    1
    21    34    35   ar
    22    34    36   ar
    23    31    32   ar
    24     2     1    1
    25     2     3    1
    26     3     4    1
    27     4     5    1
    28     5     6    1
    29     6     7   ar
    30     7     8   ar
    31     8     9   ar
    32     9    10   ar
    33    10    11   ar
    34    32    20   ar
    35    11     2    1
    36    32    24   ar
    37    11     6   ar
    38    30    25   ar
    39    15    17    1
    40    15    18    1
@<TRIPOS>MOLECULE
*****
 36 40 0 0 0
SMALL
GASTEIGER

@<TRIPOS>ATOM
      1 N         141.6374  141.1321  166.7624 N.3     1  UNL1       -0.2640
      2 C         140.6102  140.1279  166.3307 C.3     1  UNL1        0.0981
      3 C         139.3000  140.0364  167.0550 C.3     1  UNL1        0.0224
      4 C         138.2728  139.0322  166.6233 C.3     1  UNL1        0.0065
      5 C         138.5559  138.1194  165.4672 C.3     1  UNL1        0.0277
      6 C         139.8662  138.2108  164.7428 C.ar    1  UNL1       -0.0073
      7 C         140.1493  137.2980  163.5867 C.ar    1  UNL1       -0.0015
      8 C         141.4596  137.3895  162.8623 C.ar    1  UNL1        0.0203
      9 C         142.4868  138.3938  163.2940 C.ar    1  UNL1        0.0985
     10 N         142.2037  139.3066  164.4501 N.ar    1  UNL1       -0.2471
     11 C         140.8933  139.2151  165.1746 C.ar    1  UNL1        0.0695
     12 C         142.5818  140.8055  167.8811 C.3     1  UNL1        0.0728
     13 C         142.5179  139.4639  168.5490 C.3     1  UNL1        0.0188
     14 C         142.0486  139.3549  169.9695 C.3     1  UNL1        0.0183
     15 N         139.8148  139.4244  171.2943 N.3     1  UNL1       -0.3211
     16 C         140.8246  140.0994  170.4143 C.3     1  UNL1        0.0652
     17 H         139.0536  140.0723  171.4973 H       1  UNL1        0.1189
     18 H         140.2603  139.1393  172.1664 H       1  UNL1        0.1189
     19 C         141.7201  142.4630  166.0756 C.3     1  UNL1        0.1204
     20 C         142.6443  142.6486  164.9088 C.ar    1  UNL1        0.0909
     21 N         144.1293  142.5882  165.1113 N.ar    1  UNL1       -0.2453
     22 C         145.0535  142.7739  163.9445 C.ar    1  UNL1        0.0986
     23 C         144.4927  143.0198  162.5752 C.ar    1  UNL1        0.0221
     24 C         143.0076  143.0802  162.3726 C.ar    1  UNL1        0.0199
     25 C         142.1699  143.3057  161.1490 C.ar    1  UNL1        0.0173
     26 C         142.5338  143.5472  159.7140 C.ar    1  UNL1        0.0015
     27 C         141.4557  143.7425  158.6896 C.ar    1  UNL1        0.0001
     28 C         140.0137  143.6963  159.1001 C.ar    1  UNL1        0.0015
     29 C         139.6498  143.4548  160.5351 C.ar    1  UNL1        0.0172
     30 C         140.7279  143.2595  161.5595 C.ar    1  UNL1        0.0602
     31 N         140.6745  143.0054  163.0369 N.ar    1  UNL1       -0.3208
     32 C         142.0835  142.8946  163.5394 C.ar    1  UNL1        0.0753
     33 C         139.4305  142.8835  163.8661 C.3     1  UNL1        0.1477
     34 C         138.5668  144.0865  164.1040 C.2     1  UNL1        0.0732
     35 O         137.4108  144.3721  163.1917 O.co2   1  UNL1       -0.5472
     36 O         138.8589  145.0041  165.2541 O.co2   1  UNL1       -0.5472
@<TRIPOS>UNITY_ATOM_ATTR
35 1
charge -1
@<TRIPOS>BOND
     1    15    16    1
     2    16    14    1
     3    14    13    1
     4    13    12    1
     5    12     1    1
     6     1    19    1
     7    19    20    1
     8    20    21   ar
     9    21    22   ar
    10    22    23   ar
    11    23    24   ar
    12    24    25   ar
    13    25    26   ar
    14    26    27   ar
    15    27    28   ar
    16    28    29   ar
    17    29    30   ar
    18    30    31   ar
    19    31    33    1
    20    33    34    1
    21    34    35   ar
    22    34    36   ar
    23    31    32   ar
    24     2     1    1
    25     2     3    1
    26     3     4    1
    27     4     5    1
    28     5     6    1
    29     6     7   ar
    30     7     8   ar
    31     8     9   ar
    32     9    10   ar
    33    10    11   ar
    34    32    20   ar
    35    11     2    1
    36    32    24   ar
    37    11     6   ar
    38    30    25   ar
    39    15    17    1
    40    15    18    1
@<TRIPOS>MOLECULE
*****
 36 40 0 0 0
SMALL
GASTEIGER

@<TRIPOS>ATOM
      1 N         141.3327  141.4475  166.9722 N.3     1  UNL1       -0.2640
      2 C         142.4106  140.5927  166.3744 C.3     1  UNL1        0.0981
      3 C         142.5823  139.1741  166.8304 C.3     1  UNL1        0.0224
      4 C         143.6602  138.3193  166.2326 C.3     1  UNL1        0.0065
      5 C         144.5665  138.8832  165.1787 C.3     1  UNL1        0.0277
      6 C         144.3949  140.3018  164.7227 C.ar    1  UNL1       -0.0073
      7 C         145.3012  140.8656  163.6688 C.ar    1  UNL1       -0.0015
      8 C         145.1296  142.2842  163.2127 C.ar    1  UNL1        0.0203
      9 C         144.0517  143.1391  163.8105 C.ar    1  UNL1        0.0985
     10 N         143.1453  142.5753  164.8644 N.ar    1  UNL1       -0.2471
     11 C         143.3170  141.1565  165.3205 C.ar    1  UNL1        0.0695
     12 C         141.6361  142.3192  168.1546 C.3     1  UNL1        0.0728
     13 C         140.5200  142.9985  168.8916 C.3     1  UNL1        0.0188
     14 C         139.9851  142.4007  170.1591 C.3     1  UNL1        0.0183
     15 N         140.7000  140.5885  171.8780 N.3     1  UNL1       -0.3211
     16 C         140.2715  140.9662  170.4910 C.3     1  UNL1        0.0652
     17 H         140.8505  139.5808  171.9247 H       1  UNL1        0.1189
     18 H         139.9736  140.8550  172.5427 H       1  UNL1        0.1189
     19 C         139.9515  141.4306  166.3876 C.3     1  UNL1        0.1204
     20 C         139.5930  142.3797  165.2828 C.ar    1  UNL1        0.0909
     21 N         139.4661  143.8472  165.5664 N.ar    1  UNL1       -0.2453
     22 C         139.1076  144.7963  164.4616 C.ar    1  UNL1        0.0986
     23 C         138.8761  144.2780  163.0731 C.ar    1  UNL1        0.0221
     24 C         139.0031  142.8106  162.7895 C.ar    1  UNL1        0.0199
     25 C         138.8350  142.0135  161.5299 C.ar    1  UNL1        0.0173
     26 C         138.4829  142.4143  160.1280 C.ar    1  UNL1        0.0015
     27 C         138.3855  141.3734  159.0525 C.ar    1  UNL1        0.0001
     28 C         138.6400  139.9316  159.3788 C.ar    1  UNL1        0.0015
     29 C         138.9921  139.5308  160.7807 C.ar    1  UNL1        0.0172
     30 C         139.0895  140.5718  161.8563 C.ar    1  UNL1        0.0602
     31 N         139.4150  140.4778  163.3175 N.ar    1  UNL1       -0.3208
     32 C         139.3616  141.8614  163.8943 C.ar    1  UNL1        0.0753
     33 C         139.7372  139.2208  164.0699 C.3     1  UNL1        0.1477
     34 C         140.9208  138.3903  163.6708 C.2     1  UNL1        0.0732
     35 O         141.9550  138.9555  162.7428 O.co2   1  UNL1       -0.5472
     36 O         141.0702  136.9945  164.1995 O.co2   1  UNL1       -0.5472
@<TRIPOS>UNITY_ATOM_ATTR
35 1
charge -1
@<TRIPOS>BOND
     1    15    16    1
     2    16    14    1
     3    14    13    1
     4    13    12    1
     5    12     1    1
     6     1    19    1
     7    19    20    1
     8    20    21   ar
     9    21    22   ar
    10    22    23   ar
    11    23    24   ar
    12    24    25   ar
    13    25    26   ar
    14    26    27   ar
    15    27    28   ar
    16    28    29   ar
    17    29    30   ar
    18    30    31   ar
    19    31    33    1
    20    33    34    1
    21    34    35   ar
    22    34    36   ar
    23    31    32   ar
    24     2     1    1
    25     2     3    1
    26     3     4    1
    27     4     5    1
    28     5     6    1
    29     6     7   ar
    30     7     8   ar
    31     8     9   ar
    32     9    10   ar
    33    10    11   ar
    34    32    20   ar
    35    11     2    1
    36    32    24   ar
    37    11     6   ar
    38    30    25   ar
    39    15    17    1
    40    15    18    1
@<TRIPOS>MOLECULE
*****
 36 40 0 0 0
SMALL
GASTEIGER

@<TRIPOS>ATOM
      1 N         141.1311  141.2738  166.7457 N.3     1  UNL1       -0.2640
      2 C         140.2935  140.1040  166.3214 C.3     1  UNL1        0.0981
      3 C         139.0128  139.7987  167.0400 C.3     1  UNL1        0.0224
      4 C         138.1752  138.6289  166.6157 C.3     1  UNL1        0.0065
      5 C         138.6184  137.7644  165.4728 C.3     1  UNL1        0.0277
      6 C         139.8991  138.0697  164.7543 C.ar    1  UNL1       -0.0073
      7 C         140.3423  137.2051  163.6114 C.ar    1  UNL1       -0.0015
      8 C         141.6231  137.5103  162.8928 C.ar    1  UNL1        0.0203
      9 C         142.4608  138.6802  163.3170 C.ar    1  UNL1        0.0985
     10 N         142.0176  139.5447  164.4599 N.ar    1  UNL1       -0.2471
     11 C         140.7367  139.2394  165.1785 C.ar    1  UNL1        0.0695
     12 C         142.2519  141.0784  167.7234 C.3     1  UNL1        0.0728
     13 C         142.5037  139.7231  168.3146 C.3     1  UNL1        0.0188
     14 C         142.0032  139.4005  169.6914 C.3     1  UNL1        0.0183
     15 N         139.8773  139.5410  171.1781 N.3     1  UNL1       -0.3211
     16 C         140.8888  140.2053  170.2919 C.3     1  UNL1        0.0652
     17 H         139.1975  140.2320  171.4955 H       1  UNL1        0.1189
     18 H         140.3486  139.1322  171.9850 H       1  UNL1        0.1189
     19 C         140.8480  142.6388  166.1923 C.3     1  UNL1        0.1204
     20 C         140.0440  142.7864  164.9347 C.ar    1  UNL1        0.0909
     21 N         138.5462  142.8320  165.0031 N.ar    1  UNL1       -0.2453
     22 C         137.7422  142.9796  163.7455 C.ar    1  UNL1        0.0986
     23 C         138.4358  143.0815  162.4194 C.ar    1  UNL1        0.0221
     24 C         139.9335  143.0358  162.3509 C.ar    1  UNL1        0.0199
     25 C         140.8883  143.1123  161.1966 C.ar    1  UNL1        0.0173
     26 C         140.6683  143.2603  159.7202 C.ar    1  UNL1        0.0015
     27 C         141.8425  143.3081  158.7881 C.ar    1  UNL1        0.0001
     28 C         143.2367  143.2078  159.3323 C.ar    1  UNL1        0.0015
     29 C         143.4567  143.0598  160.8086 C.ar    1  UNL1        0.0172
     30 C         142.2825  143.0121  161.7408 C.ar    1  UNL1        0.0602
     31 N         142.1893  142.8736  163.2315 N.ar    1  UNL1       -0.3208
     32 C         140.7376  142.8883  163.6086 C.ar    1  UNL1        0.0753
     33 C         143.3451  142.7433  164.1787 C.3     1  UNL1        0.1477
     34 C         144.0209  143.9721  164.7108 C.2     1  UNL1        0.0732
     35 O         143.8636  145.2828  163.9983 O.co2   1  UNL1       -0.5472
     36 O         144.8542  143.8904  165.9554 O.co2   1  UNL1       -0.5472
@<TRIPOS>UNITY_ATOM_ATTR
35 1
charge -1
@<TRIPOS>BOND
     1    15    16    1
     2    16    14    1
     3    14    13    1
     4    13    12    1
     5    12     1    1
     6     1    19    1
     7    19    20    1
     8    20    21   ar
     9    21    22   ar
    10    22    23   ar
    11    23    24   ar
    12    24    25   ar
    13    25    26   ar
    14    26    27   ar
    15    27    28   ar
    16    28    29   ar
    17    29    30   ar
    18    30    31   ar
    19    31    33    1
    20    33    34    1
    21    34    35   ar
    22    34    36   ar
    23    31    32   ar
    24     2     1    1
    25     2     3    1
    26     3     4    1
    27     4     5    1
    28     5     6    1
    29     6     7   ar
    30     7     8   ar
    31     8     9   ar
    32     9    10   ar
    33    10    11   ar
    34    32    20   ar
    35    11     2    1
    36    32    24   ar
    37    11     6   ar
    38    30    25   ar
    39    15    17    1
    40    15    18    1
@<TRIPOS>MOLECULE
*****
 36 40 0 0 0
SMALL
GASTEIGER

@<TRIPOS>ATOM
      1 N         140.9044  141.2540  160.9299 N.3     1  UNL1       -0.2640
      2 C         140.6341  142.7045  161.2002 C.3     1  UNL1        0.0981
      3 C         141.1640  143.7527  160.2674 C.3     1  UNL1        0.0224
      4 C         140.8936  145.2031  160.5377 C.3     1  UNL1        0.0065
      5 C         140.0934  145.6054  161.7409 C.3     1  UNL1        0.0277
      6 C         139.5635  144.5572  162.6738 C.ar    1  UNL1       -0.0073
      7 C         138.7632  144.9594  163.8770 C.ar    1  UNL1       -0.0015
      8 C         138.2333  143.9112  164.8100 C.ar    1  UNL1        0.0203
      9 C         138.5036  142.4607  164.5397 C.ar    1  UNL1        0.0985
     10 N         139.3039  142.0584  163.3365 N.ar    1  UNL1       -0.2471
     11 C         139.8338  143.1067  162.4035 C.ar    1  UNL1        0.0695
     12 C         139.9691  140.4659  160.0616 C.3     1  UNL1        0.0728
     13 C         138.5010  140.7737  160.0679 C.3     1  UNL1        0.0188
     14 C         137.5252  139.7643  160.5959 C.3     1  UNL1        0.0183
     15 N         138.3502  139.1442  162.9802 N.3     1  UNL1       -0.3211
     16 C         137.9760  138.7326  161.5872 C.3     1  UNL1        0.0652
     17 H         138.6301  138.3215  163.5142 H       1  UNL1        0.1189
     18 H         137.5488  139.5857  163.4311 H       1  UNL1        0.1189
     19 C         142.1100  140.5917  161.5280 C.3     1  UNL1        0.1204
     20 C         141.9531  139.6583  162.6917 C.ar    1  UNL1        0.0909
     21 N         141.5199  138.2406  162.4628 N.ar    1  UNL1       -0.2453
     22 C         141.3630  137.3073  163.6265 C.ar    1  UNL1        0.0986
     23 C         141.6393  137.7916  165.0190 C.ar    1  UNL1        0.0221
     24 C         142.0726  139.2093  165.2479 C.ar    1  UNL1        0.0199
     25 C         142.4138  139.9652  166.4977 C.ar    1  UNL1        0.0173
     26 C         142.4371  139.5592  167.9415 C.ar    1  UNL1        0.0015
     27 C         142.8281  140.5537  168.9940 C.ar    1  UNL1        0.0001
     28 C         143.1959  141.9543  168.6028 C.ar    1  UNL1        0.0015
     29 C         143.1726  142.3604  167.1590 C.ar    1  UNL1        0.0172
     30 C         142.7815  141.3658  166.1065 C.ar    1  UNL1        0.0602
     31 N         142.6676  141.4755  164.6149 N.ar    1  UNL1       -0.3208
     32 C         142.2295  140.1427  164.0842 C.ar    1  UNL1        0.0753
     33 C         142.9435  142.7025  163.7974 C.3     1  UNL1        0.1477
     34 C         144.3150  142.9384  163.2379 C.2     1  UNL1        0.0732
     35 O         145.4718  142.1105  163.7139 O.co2   1  UNL1       -0.5472
     36 O         144.5300  144.0021  162.2024 O.co2   1  UNL1       -0.5472
@<TRIPOS>UNITY_ATOM_ATTR
35 1
charge -1
@<TRIPOS>BOND
     1    15    16    1
     2    16    14    1
     3    14    13    1
     4    13    12    1
     5    12     1    1
     6     1    19    1
     7    19    20    1
     8    20    21   ar
     9    21    22   ar
    10    22    23   ar
    11    23    24   ar
    12    24    25   ar
    13    25    26   ar
    14    26    27   ar
    15    27    28   ar
    16    28    29   ar
    17    29    30   ar
    18    30    31   ar
    19    31    33    1
    20    33    34    1
    21    34    35   ar
    22    34    36   ar
    23    31    32   ar
    24     2     1    1
    25     2     3    1
    26     3     4    1
    27     4     5    1
    28     5     6    1
    29     6     7   ar
    30     7     8   ar
    31     8     9   ar
    32     9    10   ar
    33    10    11   ar
    34    32    20   ar
    35    11     2    1
    36    32    24   ar
    37    11     6   ar
    38    30    25   ar
    39    15    17    1
    40    15    18    1
@<TRIPOS>MOLECULE
*****
 36 40 0 0 0
SMALL
GASTEIGER

@<TRIPOS>ATOM
      1 N         140.6422  141.5079  161.6203 N.3     1  UNL1       -0.2640
      2 C         141.7845  140.5811  161.9143 C.3     1  UNL1        0.0981
      3 C         141.7361  139.1580  161.4429 C.3     1  UNL1        0.0224
      4 C         142.8783  138.2313  161.7369 C.3     1  UNL1        0.0065
      5 C         144.0691  138.7278  162.5022 C.3     1  UNL1        0.0277
      6 C         144.1175  140.1509  162.9736 C.ar    1  UNL1       -0.0073
      7 C         145.3082  140.6473  163.7390 C.ar    1  UNL1       -0.0015
      8 C         145.3566  142.0705  164.2104 C.ar    1  UNL1        0.0203
      9 C         144.2143  142.9973  163.9164 C.ar    1  UNL1        0.0985
     10 N         143.0236  142.5009  163.1510 N.ar    1  UNL1       -0.2471
     11 C         142.9752  141.0776  162.6796 C.ar    1  UNL1        0.0695
     12 C         140.5757  142.2220  160.3028 C.3     1  UNL1        0.0728
     13 C         139.8397  141.6041  159.1511 C.3     1  UNL1        0.0188
     14 C         138.4090  141.1841  159.3139 C.3     1  UNL1        0.0183
     15 N         137.0717  139.6225  160.9022 N.3     1  UNL1       -0.3211
     16 C         138.0834  139.8065  159.8102 C.3     1  UNL1        0.0652
     17 H         136.9759  138.6291  161.1129 H       1  UNL1        0.1189
     18 H         136.1717  139.9938  160.5980 H       1  UNL1        0.1189
     19 C         139.5665  141.7205  162.6437 C.3     1  UNL1        0.1204
     20 C         139.3520  140.7065  163.7281 C.ar    1  UNL1        0.0909
     21 N         138.8835  139.3246  163.3807 N.ar    1  UNL1       -0.2453
     22 C         138.6690  138.3106  164.4650 C.ar    1  UNL1        0.0986
     23 C         138.9229  138.6787  165.8969 C.ar    1  UNL1        0.0221
     24 C         139.3914  140.0606  166.2443 C.ar    1  UNL1        0.0199
     25 C         139.7217  140.7081  167.5564 C.ar    1  UNL1        0.0173
     26 C         139.6954  140.1928  168.9648 C.ar    1  UNL1        0.0015
     27 C         140.0877  141.0916  170.0998 C.ar    1  UNL1        0.0001
     28 C         140.5064  142.5058  169.8263 C.ar    1  UNL1        0.0015
     29 C         140.5328  143.0211  168.4179 C.ar    1  UNL1        0.0172
     30 C         140.1404  142.1223  167.2830 C.ar    1  UNL1        0.0602
     31 N         140.0688  142.3487  165.8019 N.ar    1  UNL1       -0.3208
     32 C         139.6059  141.0745  165.1599 C.ar    1  UNL1        0.0753
     33 C         140.4018  143.6253  165.0880 C.3     1  UNL1        0.1477
     34 C         139.3207  144.6209  164.7881 C.2     1  UNL1        0.0732
     35 O         138.4606  145.1510  165.8969 O.co2   1  UNL1       -0.5472
     36 O         139.0995  145.0864  163.3794 O.co2   1  UNL1       -0.5472
@<TRIPOS>UNITY_ATOM_ATTR
35 1
charge -1
@<TRIPOS>BOND
     1    15    16    1
     2    16    14    1
     3    14    13    1
     4    13    12    1
     5    12     1    1
     6     1    19    1
     7    19    20    1
     8    20    21   ar
     9    21    22   ar
    10    22    23   ar
    11    23    24   ar
    12    24    25   ar
    13    25    26   ar
    14    26    27   ar
    15    27    28   ar
    16    28    29   ar
    17    29    30   ar
    18    30    31   ar
    19    31    33    1
    20    33    34    1
    21    34    35   ar
    22    34    36   ar
    23    31    32   ar
    24     2     1    1
    25     2     3    1
    26     3     4    1
    27     4     5    1
    28     5     6    1
    29     6     7   ar
    30     7     8   ar
    31     8     9   ar
    32     9    10   ar
    33    10    11   ar
    34    32    20   ar
    35    11     2    1
    36    32    24   ar
    37    11     6   ar
    38    30    25   ar
    39    15    17    1
    40    15    18    1
