@<TRIPOS>MOLECULE
*****
 29 33 0 0 0
SMALL
GASTEIGER

@<TRIPOS>ATOM
      1 C         139.5014  140.4198  166.7218 C.ar    1  UNL1        0.0015
      2 C         139.5154  138.9692  166.3402 C.ar    1  UNL1        0.0031
      3 C         139.0641  138.5488  164.9729 C.ar    1  UNL1        0.0366
      4 C         138.5987  139.5791  163.9871 C.ar    1  UNL1        0.1362
      5 C         138.5847  141.0297  164.3685 C.ar    1  UNL1        0.0357
      6 C         139.0360  141.4501  165.7359 C.ar    1  UNL1        0.0007
      7 C         138.1193  142.0600  163.3827 C.3     1  UNL1        0.1582
      8 C         137.6828  143.1976  162.5077 C.3     1  UNL1        0.2351
      9 O         137.8330  144.4684  163.2904 O.2     1  UNL1       -0.4478
     10 C         138.3623  144.1163  164.6490 C.2     1  UNL1        0.2770
     11 N         138.6620  145.0828  165.7561 N.pl3   1  UNL1       -0.3133
     12 N         138.5392  142.6278  164.7061 N.2     1  UNL1       -0.2202
     13 C         137.6679  141.6397  162.0153 C.3     1  UNL1        0.1174
     14 C         137.7978  141.3522  162.2904 C.3     1  UNL1        0.1502
     15 O         137.6613  141.6544  162.0013 O.3     1  UNL1       -0.3532
     16 C         137.7978  141.3522  162.2904 C.3     1  UNL1        0.1502
     17 C         137.6820  140.1891  161.6339 C.3     1  UNL1        0.1727
     18 C         137.2307  139.7687  160.2665 C.3     1  UNL1        0.0475
     19 O         138.1474  139.1588  162.6198 O.3     1  UNL1       -0.4792
     20 H         138.5123  146.0466  165.6222 H       1  UNL1        0.1466
     21 H         139.0084  144.7534  166.6168 H       1  UNL1        0.1466
     22 C         141.5784  142.1812  169.6085 C.ar    1  UNL1        0.1578
     23 C         140.8554  141.6808  170.8238 C.ar    1  UNL1        0.1356
     24 N         139.6811  140.7600  170.6717 N.ar    1  UNL1       -0.2391
     25 C         139.2297  140.3397  169.3043 C.ar    1  UNL1        0.0991
     26 C         139.9527  140.8401  168.0891 C.ar    1  UNL1        0.0222
     27 C         141.1271  141.7609  168.2412 C.ar    1  UNL1        0.0401
     28 C         144.1368  142.5376  169.8876 C.3     1  UNL1        0.2525
     29 O         142.7528  143.1020  169.7606 O.3     1  UNL1       -0.4699
@<TRIPOS>BOND
     1    28    29    1
     2    29    22    1
     3    22    23   ar
     4    23    24   ar
     5    24    25   ar
     6    25    26   ar
     7    26     1    1
     8     1     2   ar
     9     2     3   ar
    10     3     4   ar
    11     4     5   ar
    12     5     6   ar
    13     5     7    1
    14     7     8    1
    15     8     9    1
    16     9    10    1
    17    10    11    1
    18    10    12    2
    19     7    13    1
    20    13    14    1
    21    14    15    1
    22    15    16    1
    23    13    17    1
    24    17    18    1
    25    17    19    1
    26    26    27   ar
    27    27    22   ar
    28     6     1   ar
    29    12     7    1
    30    16    13    1
    31    19     4    1
    32    11    20    1
    33    11    21    1
@<TRIPOS>MOLECULE
*****
 29 33 0 0 0
SMALL
GASTEIGER

@<TRIPOS>ATOM
      1 C         141.9754  140.5687  165.8724 C.ar    1  UNL1        0.0015
      2 C         140.8432  139.7789  165.2855 C.ar    1  UNL1        0.0031
      3 C         139.6663  139.4077  166.1382 C.ar    1  UNL1        0.0366
      4 C         139.6216  139.8263  167.5779 C.ar    1  UNL1        0.1362
      5 C         140.7537  140.6161  168.1649 C.ar    1  UNL1        0.0357
      6 C         141.9306  140.9873  167.3121 C.ar    1  UNL1        0.0007
      7 C         140.7089  141.0347  169.6046 C.3     1  UNL1        0.1582
      8 C         140.8038  141.5211  171.0204 C.3     1  UNL1        0.2351
      9 O         142.0986  142.2638  171.1697 O.2     1  UNL1       -0.4478
     10 C         142.8039  142.2364  169.8461 C.2     1  UNL1        0.2770
     11 N         144.1343  142.8592  169.5430 N.pl3   1  UNL1       -0.3133
     12 N         141.9451  141.4768  168.8788 N.2     1  UNL1       -0.2202
     13 C         139.5321  140.6635  170.4574 C.3     1  UNL1        0.1174
     14 C         139.5446  140.5467  170.0557 C.3     1  UNL1        0.1502
     15 O         139.5315  140.6695  170.4779 O.3     1  UNL1       -0.3532
     16 C         139.5446  140.5467  170.0557 C.3     1  UNL1        0.1502
     17 C         138.4000  139.8738  169.8704 C.3     1  UNL1        0.1727
     18 C         137.2231  139.5026  170.7232 C.3     1  UNL1        0.0475
     19 O         138.4447  139.4552  168.4307 O.3     1  UNL1       -0.4792
     20 H         144.6248  143.3400  170.2483 H       1  UNL1        0.1466
     21 H         144.5170  142.7871  168.6388 H       1  UNL1        0.1466
     22 C         144.3740  142.6501  163.4925 C.ar    1  UNL1        0.1578
     23 C         145.5059  141.6822  163.3141 C.ar    1  UNL1        0.1356
     24 N         145.4611  140.3431  163.9885 N.ar    1  UNL1       -0.2391
     25 C         144.2842  139.9719  164.8413 C.ar    1  UNL1        0.0991
     26 C         143.1522  140.9398  165.0197 C.ar    1  UNL1        0.0222
     27 C         143.1971  142.2789  164.3452 C.ar    1  UNL1        0.0401
     28 C         143.6953  145.1569  163.4204 C.3     1  UNL1        0.2525
     29 O         144.4188  143.9891  162.8180 O.3     1  UNL1       -0.4699
@<TRIPOS>BOND
     1    28    29    1
     2    29    22    1
     3    22    23   ar
     4    23    24   ar
     5    24    25   ar
     6    25    26   ar
     7    26     1    1
     8     1     2   ar
     9     2     3   ar
    10     3     4   ar
    11     4     5   ar
    12     5     6   ar
    13     5     7    1
    14     7     8    1
    15     8     9    1
    16     9    10    1
    17    10    11    1
    18    10    12    2
    19     7    13    1
    20    13    14    1
    21    14    15    1
    22    15    16    1
    23    13    17    1
    24    17    18    1
    25    17    19    1
    26    26    27   ar
    27    27    22   ar
    28     6     1   ar
    29    12     7    1
    30    16    13    1
    31    19     4    1
    32    11    20    1
    33    11    21    1
@<TRIPOS>MOLECULE
*****
 29 33 0 0 0
SMALL
GASTEIGER

@<TRIPOS>ATOM
      1 C         142.2104  141.9487  165.8146 C.ar    1  UNL1        0.0015
      2 C         142.9191  140.7753  165.2056 C.ar    1  UNL1        0.0031
      3 C         143.2950  139.6006  166.0593 C.ar    1  UNL1        0.0366
      4 C         142.9622  139.5992  167.5219 C.ar    1  UNL1        0.1362
      5 C         142.2535  140.7726  168.1309 C.ar    1  UNL1        0.0357
      6 C         141.8776  141.9474  167.2772 C.ar    1  UNL1        0.0007
      7 C         141.9206  140.7713  169.5935 C.3     1  UNL1        0.1582
      8 C         141.5242  140.9117  171.0333 C.3     1  UNL1        0.2351
      9 O         140.8424  142.2376  171.1993 O.2     1  UNL1       -0.4478
     10 C         140.8176  142.9166  169.8620 C.2     1  UNL1        0.2770
     11 N         140.2296  144.2649  169.5686 N.pl3   1  UNL1       -0.3133
     12 N         141.4839  142.0104  168.8695 N.2     1  UNL1       -0.2202
     13 C         142.2965  139.5966  170.4471 C.3     1  UNL1        0.1174
     14 C         142.3894  139.5970  170.0390 C.3     1  UNL1        0.1502
     15 O         142.2918  139.5966  170.4680 O.3     1  UNL1       -0.3532
     16 C         142.3894  139.5970  170.0390 C.3     1  UNL1        0.1502
     17 C         143.0052  138.4232  169.8382 C.3     1  UNL1        0.1727
     18 C         143.3811  137.2484  170.6918 C.3     1  UNL1        0.0475
     19 O         143.3380  138.4245  168.3755 O.3     1  UNL1       -0.4792
     20 H         139.8113  144.7872  170.2907 H       1  UNL1        0.1466
     21 H         140.2620  144.6276  168.6539 H       1  UNL1        0.1466
     22 C         140.0131  144.6271  163.8786 C.ar    1  UNL1        0.1578
     23 C         141.0827  145.4729  163.2536 C.ar    1  UNL1        0.1356
     24 N         142.5282  145.1439  163.4823 N.ar    1  UNL1       -0.2391
     25 C         142.9041  143.9692  164.3359 C.ar    1  UNL1        0.0991
     26 C         141.8345  143.1234  164.9610 C.ar    1  UNL1        0.0222
     27 C         140.3890  143.4524  164.7323 C.ar    1  UNL1        0.0401
     28 C         137.6655  143.9546  162.9917 C.3     1  UNL1        0.2525
     29 O         138.5676  144.9561  163.6500 O.3     1  UNL1       -0.4699
@<TRIPOS>BOND
     1    28    29    1
     2    29    22    1
     3    22    23   ar
     4    23    24   ar
     5    24    25   ar
     6    25    26   ar
     7    26     1    1
     8     1     2   ar
     9     2     3   ar
    10     3     4   ar
    11     4     5   ar
    12     5     6   ar
    13     5     7    1
    14     7     8    1
    15     8     9    1
    16     9    10    1
    17    10    11    1
    18    10    12    2
    19     7    13    1
    20    13    14    1
    21    14    15    1
    22    15    16    1
    23    13    17    1
    24    17    18    1
    25    17    19    1
    26    26    27   ar
    27    27    22   ar
    28     6     1   ar
    29    12     7    1
    30    16    13    1
    31    19     4    1
    32    11    20    1
    33    11    21    1
@<TRIPOS>MOLECULE
*****
 29 33 0 0 0
SMALL
GASTEIGER

@<TRIPOS>ATOM
      1 C         142.9020  141.9183  165.0503 C.ar    1  UNL1        0.0015
      2 C         143.5236  142.5058  166.2826 C.ar    1  UNL1        0.0031
      3 C         142.9002  142.2639  167.6253 C.ar    1  UNL1        0.0366
      4 C         141.6552  141.4345  167.7358 C.ar    1  UNL1        0.1362
      5 C         141.0336  140.8470  166.5035 C.ar    1  UNL1        0.0357
      6 C         141.6570  141.0889  165.1608 C.ar    1  UNL1        0.0007
      7 C         139.7887  140.0177  166.6140 C.3     1  UNL1        0.1582
      8 C         138.5506  139.1720  166.5685 C.3     1  UNL1        0.2351
      9 O         138.2928  138.8043  165.1372 O.2     1  UNL1       -0.4478
     10 C         139.3714  139.4228  164.2982 C.2     1  UNL1        0.2770
     11 N         139.5026  139.3110  162.8082 N.pl3   1  UNL1       -0.3133
     12 N         140.2960  140.1727  165.2109 N.2     1  UNL1       -0.2202
     13 C         139.1653  139.7758  167.9567 C.3     1  UNL1        0.1174
     14 C         139.5127  140.0072  167.9259 C.3     1  UNL1        0.1502
     15 O         139.1476  139.7639  167.9583 O.3     1  UNL1       -0.3532
     16 C         139.5127  140.0072  167.9259 C.3     1  UNL1        0.1502
     17 C         139.7869  140.3633  169.1889 C.3     1  UNL1        0.1727
     18 C         139.1636  140.1214  170.5317 C.3     1  UNL1        0.0475
     19 O         141.0319  141.1927  169.0785 O.3     1  UNL1       -0.4792
     20 H         138.8419  138.7936  162.2933 H       1  UNL1        0.1466
     21 H         140.2493  139.7550  162.3451 H       1  UNL1        0.1466
     22 C         143.4619  143.2874  161.3676 C.ar    1  UNL1        0.1578
     23 C         144.7720  142.6440  161.0221 C.ar    1  UNL1        0.1356
     24 N         145.4589  141.7586  162.0193 N.ar    1  UNL1       -0.2391
     25 C         144.8355  141.5167  163.3621 C.ar    1  UNL1        0.0991
     26 C         143.5253  142.1602  163.7076 C.ar    1  UNL1        0.0222
     27 C         142.8385  143.0455  162.7103 C.ar    1  UNL1        0.0401
     28 C         141.3805  144.6585  160.6340 C.3     1  UNL1        0.2525
     29 O         142.7750  144.1728  160.3705 O.3     1  UNL1       -0.4699
@<TRIPOS>BOND
     1    28    29    1
     2    29    22    1
     3    22    23   ar
     4    23    24   ar
     5    24    25   ar
     6    25    26   ar
     7    26     1    1
     8     1     2   ar
     9     2     3   ar
    10     3     4   ar
    11     4     5   ar
    12     5     6   ar
    13     5     7    1
    14     7     8    1
    15     8     9    1
    16     9    10    1
    17    10    11    1
    18    10    12    2
    19     7    13    1
    20    13    14    1
    21    14    15    1
    22    15    16    1
    23    13    17    1
    24    17    18    1
    25    17    19    1
    26    26    27   ar
    27    27    22   ar
    28     6     1   ar
    29    12     7    1
    30    16    13    1
    31    19     4    1
    32    11    20    1
    33    11    21    1
@<TRIPOS>MOLECULE
*****
 29 33 0 0 0
SMALL
GASTEIGER

@<TRIPOS>ATOM
      1 C         140.6969  143.1252  164.9194 C.ar    1  UNL1        0.0015
      2 C         140.0240  143.5587  166.1881 C.ar    1  UNL1        0.0031
      3 C         140.2424  142.7858  167.4549 C.ar    1  UNL1        0.0366
      4 C         141.1337  141.5793  167.4531 C.ar    1  UNL1        0.1362
      5 C         141.8066  141.1457  166.1846 C.ar    1  UNL1        0.0357
      6 C         141.5882  141.9187  164.9177 C.ar    1  UNL1        0.0007
      7 C         142.6979  139.9393  166.1829 C.3     1  UNL1        0.1582
      8 C         143.6117  138.7599  166.0281 C.3     1  UNL1        0.2351
      9 O         144.0537  138.7007  164.5959 O.2     1  UNL1       -0.4478
     10 C         143.4131  139.8434  163.8655 C.2     1  UNL1        0.2770
     11 N         143.5808  140.1644  162.4099 N.pl3   1  UNL1       -0.3133
     12 N         142.5751  140.6090  164.8462 N.2     1  UNL1       -0.2202
     13 C         142.9163  139.1663  167.4497 C.3     1  UNL1        0.1174
     14 C         142.6676  139.5029  167.4502 C.3     1  UNL1        0.1502
     15 O         142.9290  139.1491  167.4497 O.3     1  UNL1       -0.3532
     16 C         142.6676  139.5029  167.4502 C.3     1  UNL1        0.1502
     17 C         142.2434  139.5999  168.7182 C.3     1  UNL1        0.1727
     18 C         142.4618  138.8269  169.9851 C.3     1  UNL1        0.0475
     19 O         141.3521  140.8064  168.7199 O.3     1  UNL1       -0.4792
     20 H         144.1553  139.5994  161.8443 H       1  UNL1        0.1466
     21 H         143.1165  140.9401  162.0202 H       1  UNL1        0.1466
     22 C         141.2899  144.6312  161.2959 C.ar    1  UNL1        0.1578
     23 C         140.0417  145.4440  161.1190 C.ar    1  UNL1        0.1356
     24 N         139.0118  145.4838  162.2088 N.ar    1  UNL1       -0.2391
     25 C         139.2302  144.7108  163.4757 C.ar    1  UNL1        0.0991
     26 C         140.4785  143.8981  163.6526 C.ar    1  UNL1        0.0222
     27 C         141.5083  143.8583  162.5627 C.ar    1  UNL1        0.0401
     28 C         142.8420  143.2736  159.7154 C.3     1  UNL1        0.2525
     29 O         142.3197  144.5914  160.2061 O.3     1  UNL1       -0.4699
@<TRIPOS>BOND
     1    28    29    1
     2    29    22    1
     3    22    23   ar
     4    23    24   ar
     5    24    25   ar
     6    25    26   ar
     7    26     1    1
     8     1     2   ar
     9     2     3   ar
    10     3     4   ar
    11     4     5   ar
    12     5     6   ar
    13     5     7    1
    14     7     8    1
    15     8     9    1
    16     9    10    1
    17    10    11    1
    18    10    12    2
    19     7    13    1
    20    13    14    1
    21    14    15    1
    22    15    16    1
    23    13    17    1
    24    17    18    1
    25    17    19    1
    26    26    27   ar
    27    27    22   ar
    28     6     1   ar
    29    12     7    1
    30    16    13    1
    31    19     4    1
    32    11    20    1
    33    11    21    1
@<TRIPOS>MOLECULE
*****
 29 33 0 0 0
SMALL
GASTEIGER

@<TRIPOS>ATOM
      1 C         141.5446  143.3952  164.0086 C.ar    1  UNL1        0.0015
      2 C         142.8969  143.6468  164.6070 C.ar    1  UNL1        0.0031
      3 C         143.3383  142.8743  165.8146 C.ar    1  UNL1        0.0366
      4 C         142.4274  141.8501  166.4239 C.ar    1  UNL1        0.1362
      5 C         141.0751  141.5984  165.8257 C.ar    1  UNL1        0.0357
      6 C         140.6337  142.3710  164.6180 C.ar    1  UNL1        0.0007
      7 C         140.1643  140.5742  166.4350 C.3     1  UNL1        0.1582
      8 C         139.1501  139.5870  166.9320 C.3     1  UNL1        0.2351
      9 O         137.9477  139.6682  166.0388 O.2     1  UNL1       -0.4478
     10 C         138.2187  140.7056  164.9898 C.2     1  UNL1        0.2770
     11 N         137.2841  141.1117  163.8892 N.pl3   1  UNL1       -0.3133
     12 N         139.5886  141.2655  165.2346 N.2     1  UNL1       -0.2202
     13 C         140.6056  139.8017  167.6426 C.3     1  UNL1        0.1174
     14 C         140.8598  140.0875  167.4726 C.3     1  UNL1        0.1502
     15 O         140.5926  139.7871  167.6513 O.3     1  UNL1       -0.3532
     16 C         140.8598  140.0875  167.4726 C.3     1  UNL1        0.1502
     17 C         141.9579  140.0534  168.2409 C.3     1  UNL1        0.1727
     18 C         142.3994  139.2808  169.4485 C.3     1  UNL1        0.0475
     19 O         142.8688  141.0776  167.6315 O.3     1  UNL1       -0.4792
     20 H         136.4009  140.6838  163.8105 H       1  UNL1        0.1466
     21 H         137.5538  141.8060  163.2455 H       1  UNL1        0.1466
     22 C         141.4649  144.8772  160.3280 C.ar    1  UNL1        0.1578
     23 C         140.2205  145.7128  160.3858 C.ar    1  UNL1        0.1356
     24 N         139.4174  145.7757  161.6511 N.ar    1  UNL1       -0.2391
     25 C         139.8588  145.0032  162.8588 C.ar    1  UNL1        0.0991
     26 C         141.1032  144.1677  162.8010 C.ar    1  UNL1        0.0222
     27 C         141.9063  144.1047  161.5356 C.ar    1  UNL1        0.0401
     28 C         141.8408  145.6071  157.8631 C.3     1  UNL1        0.2525
     29 O         142.2679  144.8143  159.0627 O.3     1  UNL1       -0.4699
@<TRIPOS>BOND
     1    28    29    1
     2    29    22    1
     3    22    23   ar
     4    23    24   ar
     5    24    25   ar
     6    25    26   ar
     7    26     1    1
     8     1     2   ar
     9     2     3   ar
    10     3     4   ar
    11     4     5   ar
    12     5     6   ar
    13     5     7    1
    14     7     8    1
    15     8     9    1
    16     9    10    1
    17    10    11    1
    18    10    12    2
    19     7    13    1
    20    13    14    1
    21    14    15    1
    22    15    16    1
    23    13    17    1
    24    17    18    1
    25    17    19    1
    26    26    27   ar
    27    27    22   ar
    28     6     1   ar
    29    12     7    1
    30    16    13    1
    31    19     4    1
    32    11    20    1
    33    11    21    1
@<TRIPOS>MOLECULE
*****
 29 33 0 0 0
SMALL
GASTEIGER

@<TRIPOS>ATOM
      1 C         142.2782  142.0450  164.7636 C.ar    1  UNL1        0.0015
      2 C         143.2286  142.5321  165.8170 C.ar    1  UNL1        0.0031
      3 C         142.9726  142.2182  167.2612 C.ar    1  UNL1        0.0366
      4 C         141.7661  141.4172  167.6522 C.ar    1  UNL1        0.1362
      5 C         140.8157  140.9302  166.5989 C.ar    1  UNL1        0.0357
      6 C         141.0717  141.2440  165.1546 C.ar    1  UNL1        0.0007
      7 C         139.6092  140.1292  166.9899 C.3     1  UNL1        0.1582
      8 C         138.3674  139.3221  167.2280 C.3     1  UNL1        0.2351
      9 O         137.7244  139.0578  165.8988 O.2     1  UNL1       -0.4478
     10 C         138.5687  139.7014  164.8392 C.2     1  UNL1        0.2770
     11 N         138.2962  139.6857  163.3643 N.pl3   1  UNL1       -0.3133
     12 N         139.7337  140.3636  165.5135 N.2     1  UNL1       -0.2202
     13 C         139.3531  139.8153  168.4341 C.3     1  UNL1        0.1174
     14 C         139.6898  140.0388  168.3251 C.3     1  UNL1        0.1502
     15 O         139.3359  139.8039  168.4397 O.3     1  UNL1       -0.3532
     16 C         139.6898  140.0388  168.3251 C.3     1  UNL1        0.1502
     17 C         140.3036  140.3024  169.4874 C.3     1  UNL1        0.1727
     18 C         140.0475  139.9885  170.9317 C.3     1  UNL1        0.0475
     19 O         141.5100  141.1033  169.0964 O.3     1  UNL1       -0.4792
     20 H         137.5009  139.2219  163.0156 H       1  UNL1        0.1466
     21 H         138.9126  140.1393  162.7450 H       1  UNL1        0.1466
     22 C         142.7270  141.5817  160.8478 C.ar    1  UNL1        0.1578
     23 C         143.0464  142.9867  160.4309 C.ar    1  UNL1        0.1356
     24 N         143.1097  144.0778  161.4581 N.ar    1  UNL1       -0.2391
     25 C         142.8537  143.7640  162.9025 C.ar    1  UNL1        0.0991
     26 C         142.5343  142.3589  163.3194 C.ar    1  UNL1        0.0222
     27 C         142.4709  141.2678  162.2920 C.ar    1  UNL1        0.0401
     28 C         143.6148  139.3331  159.8961 C.3     1  UNL1        0.2525
     29 O         142.6636  140.4905  159.8205 O.3     1  UNL1       -0.4699
@<TRIPOS>BOND
     1    28    29    1
     2    29    22    1
     3    22    23   ar
     4    23    24   ar
     5    24    25   ar
     6    25    26   ar
     7    26     1    1
     8     1     2   ar
     9     2     3   ar
    10     3     4   ar
    11     4     5   ar
    12     5     6   ar
    13     5     7    1
    14     7     8    1
    15     8     9    1
    16     9    10    1
    17    10    11    1
    18    10    12    2
    19     7    13    1
    20    13    14    1
    21    14    15    1
    22    15    16    1
    23    13    17    1
    24    17    18    1
    25    17    19    1
    26    26    27   ar
    27    27    22   ar
    28     6     1   ar
    29    12     7    1
    30    16    13    1
    31    19     4    1
    32    11    20    1
    33    11    21    1
@<TRIPOS>MOLECULE
*****
 29 33 0 0 0
SMALL
GASTEIGER

@<TRIPOS>ATOM
      1 C         139.8750  140.1791  167.3087 C.ar    1  UNL1        0.0015
      2 C         138.6398  139.3329  167.2165 C.ar    1  UNL1        0.0031
      3 C         138.2226  138.7563  165.8961 C.ar    1  UNL1        0.0366
      4 C         139.0405  139.0258  164.6679 C.ar    1  UNL1        0.1362
      5 C         140.2756  139.8719  164.7601 C.ar    1  UNL1        0.0357
      6 C         140.6929  140.4486  166.0805 C.ar    1  UNL1        0.0007
      7 C         141.0935  140.1414  163.5319 C.3     1  UNL1        0.1582
      8 C         142.0066  140.4953  162.3957 C.3     1  UNL1        0.2351
      9 O         143.1099  141.3549  162.9381 O.2     1  UNL1       -0.4478
     10 C         142.8787  141.5322  164.4095 C.2     1  UNL1        0.2770
     11 N         143.7419  142.3209  165.3489 N.pl3   1  UNL1       -0.3133
     12 N         141.6324  140.7823  164.7766 N.2     1  UNL1       -0.2202
     13 C         140.6763  139.5649  162.2116 C.3     1  UNL1        0.1174
     14 C         140.4481  139.4897  162.5542 C.3     1  UNL1        0.1502
     15 O         140.6879  139.5687  162.1940 O.3     1  UNL1       -0.3532
     16 C         140.4481  139.4897  162.5542 C.3     1  UNL1        0.1502
     17 C         139.4411  138.7188  162.1194 C.3     1  UNL1        0.1727
     18 C         139.0238  138.1421  160.7990 C.3     1  UNL1        0.0475
     19 O         138.6233  138.4493  163.3476 O.3     1  UNL1       -0.4792
     20 H         144.5442  142.7809  165.0114 H       1  UNL1        0.1466
     21 H         143.5062  142.3785  166.3031 H       1  UNL1        0.1466
     22 C         141.8808  142.2664  170.0234 C.ar    1  UNL1        0.1578
     23 C         141.1268  141.9089  171.2699 C.ar    1  UNL1        0.1356
     24 N         139.9555  140.9748  171.1959 N.ar    1  UNL1       -0.2391
     25 C         139.5382  140.3981  169.8755 C.ar    1  UNL1        0.0991
     26 C         140.2923  140.7556  168.6291 C.ar    1  UNL1        0.0222
     27 C         141.4636  141.6898  168.7031 C.ar    1  UNL1        0.0401
     28 C         144.4482  142.6631  169.9864 C.3     1  UNL1        0.2525
     29 O         143.0521  143.2005  170.0973 O.3     1  UNL1       -0.4699
@<TRIPOS>BOND
     1    28    29    1
     2    29    22    1
     3    22    23   ar
     4    23    24   ar
     5    24    25   ar
     6    25    26   ar
     7    26     1    1
     8     1     2   ar
     9     2     3   ar
    10     3     4   ar
    11     4     5   ar
    12     5     6   ar
    13     5     7    1
    14     7     8    1
    15     8     9    1
    16     9    10    1
    17    10    11    1
    18    10    12    2
    19     7    13    1
    20    13    14    1
    21    14    15    1
    22    15    16    1
    23    13    17    1
    24    17    18    1
    25    17    19    1
    26    26    27   ar
    27    27    22   ar
    28     6     1   ar
    29    12     7    1
    30    16    13    1
    31    19     4    1
    32    11    20    1
    33    11    21    1
@<TRIPOS>MOLECULE
*****
 29 33 0 0 0
SMALL
GASTEIGER

@<TRIPOS>ATOM
      1 C         141.4527  139.8572  166.5822 C.ar    1  UNL1        0.0015
      2 C         142.8185  139.2376  166.6110 C.ar    1  UNL1        0.0031
      3 C         143.3945  138.6338  165.3646 C.ar    1  UNL1        0.0366
      4 C         142.6049  138.6496  164.0893 C.ar    1  UNL1        0.1362
      5 C         141.2392  139.2692  164.0605 C.ar    1  UNL1        0.0357
      6 C         140.6630  139.8730  165.3069 C.ar    1  UNL1        0.0007
      7 C         140.4496  139.2850  162.7853 C.3     1  UNL1        0.1582
      8 C         139.5470  139.3746  161.5905 C.3     1  UNL1        0.2351
      9 O         138.2862  140.0688  162.0130 O.2     1  UNL1       -0.4478
     10 C         138.4094  140.4083  163.4688 C.2     1  UNL1        0.2770
     11 N         137.3770  141.1090  164.3012 N.pl3   1  UNL1       -0.3133
     12 N         139.7465  139.9239  163.9462 N.2     1  UNL1       -0.2202
     13 C         141.0256  138.6812  161.5389 C.3     1  UNL1        0.1174
     14 C         141.2459  138.6768  161.8947 C.3     1  UNL1        0.1502
     15 O         141.0144  138.6815  161.5207 O.3     1  UNL1       -0.3532
     16 C         141.2459  138.6768  161.8947 C.3     1  UNL1        0.1502
     17 C         142.3913  138.0616  161.5677 C.3     1  UNL1        0.1727
     18 C         142.9675  137.4578  160.3213 C.3     1  UNL1        0.0475
     19 O         143.1810  138.0458  162.8429 O.3     1  UNL1       -0.4792
     20 H         136.5252  141.3899  163.8953 H       1  UNL1        0.1466
     21 H         137.5512  141.2881  165.2535 H       1  UNL1        0.1466
     22 C         141.0035  142.2050  169.7502 C.ar    1  UNL1        0.1578
     23 C         139.7245  141.6686  170.3214 C.ar    1  UNL1        0.1356
     24 N         139.0215  140.5285  169.6463 N.ar    1  UNL1       -0.2391
     25 C         139.5975  139.9247  168.3998 C.ar    1  UNL1        0.0991
     26 C         140.8766  140.4610  167.8285 C.ar    1  UNL1        0.0222
     27 C         141.5796  141.6012  168.5038 C.ar    1  UNL1        0.0401
     28 C         143.1837  143.2726  170.6759 C.3     1  UNL1        0.2525
     29 O         141.7065  143.3451  170.4253 O.3     1  UNL1       -0.4699
@<TRIPOS>BOND
     1    28    29    1
     2    29    22    1
     3    22    23   ar
     4    23    24   ar
     5    24    25   ar
     6    25    26   ar
     7    26     1    1
     8     1     2   ar
     9     2     3   ar
    10     3     4   ar
    11     4     5   ar
    12     5     6   ar
    13     5     7    1
    14     7     8    1
    15     8     9    1
    16     9    10    1
    17    10    11    1
    18    10    12    2
    19     7    13    1
    20    13    14    1
    21    14    15    1
    22    15    16    1
    23    13    17    1
    24    17    18    1
    25    17    19    1
    26    26    27   ar
    27    27    22   ar
    28     6     1   ar
    29    12     7    1
    30    16    13    1
    31    19     4    1
    32    11    20    1
    33    11    21    1
