@<TRIPOS>MOLECULE
*****
 27 29 0 0 0
SMALL
GASTEIGER

@<TRIPOS>ATOM
      1 C         139.0802  138.5912  164.2930 C.ar    1  UNL1        0.1390
      2 C         138.3007  139.0085  165.5047 C.ar    1  UNL1        0.0366
      3 C         139.0198  139.4883  166.7305 C.ar    1  UNL1        0.0001
      4 C         140.5184  139.5507  166.7446 C.ar    1  UNL1       -0.0078
      5 C         141.2979  139.1335  165.5329 C.ar    1  UNL1        0.0001
      6 C         140.5788  138.6537  164.3071 C.ar    1  UNL1        0.0366
      7 C         141.2376  140.0305  167.9705 C.3     1  UNL1        0.0772
      8 C         142.5428  139.5043  168.4896 C.3     1  UNL1        0.0221
      9 C         142.8897  140.2693  169.7324 C.3     1  UNL1        0.0268
     10 C         141.7988  141.2684  169.9814 C.3     1  UNL1        0.1315
     11 N         140.7778  141.1208  168.8924 N.3     1  UNL1       -0.2890
     12 H         140.6923  141.9968  168.3770 H       1  UNL1        0.1239
     13 C         141.7394  142.2437  171.1194 C.2     1  UNL1        0.2336
     14 N         142.8109  143.2819  171.2740 N.am    1  UNL1       -0.3277
     15 O         140.6084  142.1809  172.1028 O.2     1  UNL1       -0.2739
     16 H         143.5532  143.3231  170.6286 H       1  UNL1        0.1450
     17 H         142.7720  143.9221  172.0210 H       1  UNL1        0.1450
     18 O         138.3610  138.1115  163.0671 O.3     1  UNL1       -0.4706
     19 C         137.9166  139.0948  162.0253 C.3     1  UNL1        0.2327
     20 C         139.4973  141.1033  161.5592 C.ar    1  UNL1        0.0679
     21 C         139.8284  142.5584  161.7114 C.ar    1  UNL1        0.0101
     22 C         138.9100  143.4599  162.4820 C.ar    1  UNL1        0.0007
     23 C         137.6605  142.9064  163.1004 C.ar    1  UNL1       -0.0002
     24 C         137.3294  141.4514  162.9481 C.ar    1  UNL1       -0.0000
     25 C         138.2478  140.5499  162.1775 C.ar    1  UNL1        0.0308
     26 N         141.3340  139.3003  160.0180 N.1     1  UNL1       -0.1908
     27 C         140.4156  140.2018  160.7886 C.1     1  UNL1        0.1002
@<TRIPOS>BOND
     1    26    27    3
     2    27    20    1
     3    20    21   ar
     4    21    22   ar
     5    22    23   ar
     6    23    24   ar
     7    24    25   ar
     8    25    19    1
     9    19    18    1
    10    18     1    1
    11     1     2   ar
    12     2     3   ar
    13     3     4   ar
    14     7     4    1
    15     7     8    1
    16     8     9    1
    17     9    10    1
    18    10    13    1
    19    13    14   am
    20    13    15    2
    21    10    11    1
    22     4     5   ar
    23     5     6   ar
    24    25    20   ar
    25     6     1   ar
    26    11     7    1
    27    14    16    1
    28    14    17    1
    29    11    12    1
@<TRIPOS>MOLECULE
*****
 27 29 0 0 0
SMALL
GASTEIGER

@<TRIPOS>ATOM
      1 C         142.2529  138.6364  164.0246 C.ar    1  UNL1        0.1390
      2 C         142.9666  138.4836  165.3350 C.ar    1  UNL1        0.0366
      3 C         142.3580  139.0364  166.5896 C.ar    1  UNL1        0.0001
      4 C         141.0355  139.7420  166.5337 C.ar    1  UNL1       -0.0078
      5 C         140.3217  139.8948  165.2233 C.ar    1  UNL1        0.0001
      6 C         140.9304  139.3420  163.9687 C.ar    1  UNL1        0.0366
      7 C         140.4267  140.2948  167.7882 C.3     1  UNL1        0.0772
      8 C         139.2273  139.7459  168.5024 C.3     1  UNL1        0.0221
      9 C         138.9699  140.6055  169.7044 C.3     1  UNL1        0.0268
     10 C         140.0102  141.6858  169.7331 C.3     1  UNL1        0.1315
     11 N         140.9106  141.4937  168.5489 N.3     1  UNL1       -0.2890
     12 H         141.8686  141.3405  168.8637 H       1  UNL1        0.1239
     13 C         140.1292  142.7680  170.7649 C.2     1  UNL1        0.2336
     14 N         140.0056  144.2070  170.3601 N.am    1  UNL1       -0.3277
     15 O         140.3720  142.4111  172.2015 O.2     1  UNL1       -0.2739
     16 H         139.8463  144.4412  169.4172 H       1  UNL1        0.1450
     17 H         140.0837  144.9173  171.0373 H       1  UNL1        0.1450
     18 O         142.8616  138.0835  162.7701 O.3     1  UNL1       -0.4706
     19 C         144.0302  138.7769  162.1348 C.3     1  UNL1        0.2327
     20 C         143.5093  141.2280  161.4488 C.ar    1  UNL1        0.0679
     21 C         143.7051  142.7019  161.6468 C.ar    1  UNL1        0.0101
     22 C         144.6176  143.1986  162.7288 C.ar    1  UNL1        0.0007
     23 C         145.3343  142.2215  163.6127 C.ar    1  UNL1       -0.0002
     24 C         145.1385  140.7476  163.4147 C.ar    1  UNL1       -0.0000
     25 C         144.2260  140.2509  162.3328 C.ar    1  UNL1        0.0308
     26 N         141.6842  140.2346  159.2850 N.1     1  UNL1       -0.1908
     27 C         142.5968  140.7313  160.3669 C.1     1  UNL1        0.1002
@<TRIPOS>BOND
     1    26    27    3
     2    27    20    1
     3    20    21   ar
     4    21    22   ar
     5    22    23   ar
     6    23    24   ar
     7    24    25   ar
     8    25    19    1
     9    19    18    1
    10    18     1    1
    11     1     2   ar
    12     2     3   ar
    13     3     4   ar
    14     7     4    1
    15     7     8    1
    16     8     9    1
    17     9    10    1
    18    10    13    1
    19    13    14   am
    20    13    15    2
    21    10    11    1
    22     4     5   ar
    23     5     6   ar
    24    25    20   ar
    25     6     1   ar
    26    11     7    1
    27    14    16    1
    28    14    17    1
    29    11    12    1
@<TRIPOS>MOLECULE
*****
 27 29 0 0 0
SMALL
GASTEIGER

@<TRIPOS>ATOM
      1 C         138.3402  142.4851  163.6949 C.ar    1  UNL1        0.1390
      2 C         138.7042  141.1264  164.2159 C.ar    1  UNL1        0.0366
      3 C         139.5623  140.9975  165.4394 C.ar    1  UNL1        0.0001
      4 C         140.0564  142.2272  166.1419 C.ar    1  UNL1       -0.0078
      5 C         139.6924  143.5859  165.6209 C.ar    1  UNL1        0.0001
      6 C         138.8343  143.7149  164.3974 C.ar    1  UNL1        0.0366
      7 C         140.9145  142.0983  167.3655 C.3     1  UNL1        0.0772
      8 C         142.4036  142.2704  167.4202 C.3     1  UNL1        0.0221
      9 C         142.8436  142.0532  168.8377 C.3     1  UNL1        0.0268
     10 C         141.6264  141.7467  169.6591 C.3     1  UNL1        0.1315
     11 N         140.4342  141.7747  168.7492 N.3     1  UNL1       -0.2890
     12 H         139.7760  142.4880  169.0628 H       1  UNL1        0.1239
     13 C         141.6051  141.4624  171.1317 C.2     1  UNL1        0.2336
     14 N         142.5833  140.4905  171.7220 N.am    1  UNL1       -0.3277
     15 O         140.6056  142.1499  172.0140 O.2     1  UNL1       -0.2739
     16 H         143.2393  140.0393  171.1429 H       1  UNL1        0.1450
     17 H         142.5694  140.3038  172.6886 H       1  UNL1        0.1450
     18 O         137.4821  142.6140  162.4713 O.3     1  UNL1       -0.4706
     19 C         138.1136  142.6314  161.1109 C.3     1  UNL1        0.2327
     20 C         140.5093  143.6313  161.0086 C.ar    1  UNL1        0.0679
     21 C         141.9906  143.4428  160.8668 C.ar    1  UNL1        0.0101
     22 C         142.5576  142.0660  160.6855 C.ar    1  UNL1        0.0007
     23 C         141.6432  140.8776  160.6460 C.ar    1  UNL1       -0.0002
     24 C         140.1619  141.0661  160.7878 C.ar    1  UNL1       -0.0000
     25 C         139.5950  142.4429  160.9691 C.ar    1  UNL1        0.0308
     26 N         139.3755  146.3850  161.3711 N.1     1  UNL1       -0.1908
     27 C         139.9424  145.0082  161.1898 C.1     1  UNL1        0.1002
@<TRIPOS>BOND
     1    26    27    3
     2    27    20    1
     3    20    21   ar
     4    21    22   ar
     5    22    23   ar
     6    23    24   ar
     7    24    25   ar
     8    25    19    1
     9    19    18    1
    10    18     1    1
    11     1     2   ar
    12     2     3   ar
    13     3     4   ar
    14     7     4    1
    15     7     8    1
    16     8     9    1
    17     9    10    1
    18    10    13    1
    19    13    14   am
    20    13    15    2
    21    10    11    1
    22     4     5   ar
    23     5     6   ar
    24    25    20   ar
    25     6     1   ar
    26    11     7    1
    27    14    16    1
    28    14    17    1
    29    11    12    1
@<TRIPOS>MOLECULE
*****
 27 29 0 0 0
SMALL
GASTEIGER

@<TRIPOS>ATOM
      1 C         138.1275  141.5091  163.9523 C.ar    1  UNL1        0.1390
      2 C         138.9667  142.7524  163.9578 C.ar    1  UNL1        0.0366
      3 C         139.9894  142.9622  165.0348 C.ar    1  UNL1        0.0001
      4 C         140.1729  141.9288  166.1064 C.ar    1  UNL1       -0.0078
      5 C         139.3337  140.6855  166.1009 C.ar    1  UNL1        0.0001
      6 C         138.3110  140.4757  165.0239 C.ar    1  UNL1        0.0366
      7 C         141.1956  142.1386  167.1835 C.3     1  UNL1        0.0772
      8 C         142.6836  142.0524  167.0153 C.3     1  UNL1        0.0221
      9 C         143.3175  142.3320  168.3457 C.3     1  UNL1        0.0268
     10 C         142.2211  142.5909  169.3363 C.3     1  UNL1        0.1315
     11 N         140.9098  142.4714  168.6179 N.3     1  UNL1       -0.2890
     12 H         140.4027  143.3546  168.6739 H       1  UNL1        0.1239
     13 C         142.4041  142.9128  170.7898 C.2     1  UNL1        0.2336
     14 N         143.3943  143.9593  171.2073 N.am    1  UNL1       -0.3277
     15 O         141.5969  142.1882  171.8259 O.2     1  UNL1       -0.2739
     16 H         143.9241  144.4349  170.5273 H       1  UNL1        0.1450
     17 H         143.5144  144.1706  172.1614 H       1  UNL1        0.1450
     18 O         137.1048  141.2993  162.8752 O.3     1  UNL1       -0.4706
     19 C         137.4768  140.5669  161.6202 C.3     1  UNL1        0.2327
     20 C         139.9353  140.8501  160.8293 C.ar    1  UNL1        0.0679
     21 C         141.3196  140.2959  160.6667 C.ar    1  UNL1        0.0101
     22 C         141.6297  138.9041  161.1323 C.ar    1  UNL1        0.0007
     23 C         140.5555  138.0666  161.7605 C.ar    1  UNL1       -0.0002
     24 C         139.1713  138.6209  161.9231 C.ar    1  UNL1       -0.0000
     25 C         138.8612  140.0126  161.4575 C.ar    1  UNL1        0.0308
     26 N         139.3151  143.6337  159.8981 N.1     1  UNL1       -0.1908
     27 C         139.6252  142.2419  160.3637 C.1     1  UNL1        0.1002
@<TRIPOS>BOND
     1    26    27    3
     2    27    20    1
     3    20    21   ar
     4    21    22   ar
     5    22    23   ar
     6    23    24   ar
     7    24    25   ar
     8    25    19    1
     9    19    18    1
    10    18     1    1
    11     1     2   ar
    12     2     3   ar
    13     3     4   ar
    14     7     4    1
    15     7     8    1
    16     8     9    1
    17     9    10    1
    18    10    13    1
    19    13    14   am
    20    13    15    2
    21    10    11    1
    22     4     5   ar
    23     5     6   ar
    24    25    20   ar
    25     6     1   ar
    26    11     7    1
    27    14    16    1
    28    14    17    1
    29    11    12    1
@<TRIPOS>MOLECULE
*****
 27 29 0 0 0
SMALL
GASTEIGER

@<TRIPOS>ATOM
      1 C         138.5521  139.1935  163.7054 C.ar    1  UNL1        0.1390
      2 C         138.4346  140.6831  163.8376 C.ar    1  UNL1        0.0366
      3 C         138.9431  141.3690  165.0709 C.ar    1  UNL1        0.0001
      4 C         139.5690  140.5653  166.1719 C.ar    1  UNL1       -0.0078
      5 C         139.6864  139.0758  166.0397 C.ar    1  UNL1        0.0001
      6 C         139.1780  138.3899  164.8065 C.ar    1  UNL1        0.0366
      7 C         140.0775  141.2512  167.4053 C.3     1  UNL1        0.0772
      8 C         140.4244  142.7056  167.5258 C.3     1  UNL1        0.0221
      9 C         140.8897  142.9563  168.9296 C.3     1  UNL1        0.0268
     10 C         140.8302  141.6569  169.6767 C.3     1  UNL1        0.1315
     11 N         140.3283  140.6032  168.7346 N.3     1  UNL1       -0.2890
     12 H         139.4616  140.2025  169.0934 H       1  UNL1        0.1239
     13 C         141.2067  141.4481  171.1136 C.2     1  UNL1        0.2336
     14 N         142.3316  140.5209  171.4670 N.am    1  UNL1       -0.3277
     15 O         140.4582  142.1664  172.1970 O.2     1  UNL1       -0.2739
     16 H         142.8228  140.0495  170.7559 H       1  UNL1        0.1450
     17 H         142.5787  140.3838  172.4101 H       1  UNL1        0.1450
     18 O         138.0436  138.5076  162.4721 O.3     1  UNL1       -0.4706
     19 C         138.9553  138.3005  161.2992 C.3     1  UNL1        0.2327
     20 C         140.8323  140.0592  160.9332 C.ar    1  UNL1        0.0679
     21 C         142.2755  140.4572  161.0257 C.ar    1  UNL1        0.0101
     22 C         143.2852  139.4944  161.5767 C.ar    1  UNL1        0.0007
     23 C         142.8516  138.1336  162.0352 C.ar    1  UNL1       -0.0002
     24 C         141.4083  137.7357  161.9427 C.ar    1  UNL1       -0.0000
     25 C         140.3987  138.6985  161.3917 C.ar    1  UNL1        0.0308
     26 N         138.8130  141.9849  159.8312 N.1     1  UNL1       -0.1908
     27 C         139.8226  141.0221  160.3822 C.1     1  UNL1        0.1002
@<TRIPOS>BOND
     1    26    27    3
     2    27    20    1
     3    20    21   ar
     4    21    22   ar
     5    22    23   ar
     6    23    24   ar
     7    24    25   ar
     8    25    19    1
     9    19    18    1
    10    18     1    1
    11     1     2   ar
    12     2     3   ar
    13     3     4   ar
    14     7     4    1
    15     7     8    1
    16     8     9    1
    17     9    10    1
    18    10    13    1
    19    13    14   am
    20    13    15    2
    21    10    11    1
    22     4     5   ar
    23     5     6   ar
    24    25    20   ar
    25     6     1   ar
    26    11     7    1
    27    14    16    1
    28    14    17    1
    29    11    12    1
@<TRIPOS>MOLECULE
*****
 27 29 0 0 0
SMALL
GASTEIGER

@<TRIPOS>ATOM
      1 C         142.0573  142.0594  163.1245 C.ar    1  UNL1        0.1390
      2 C         143.1289  141.2779  163.8251 C.ar    1  UNL1        0.0366
      3 C         143.1541  141.2163  165.3235 C.ar    1  UNL1        0.0001
      4 C         142.1077  141.9362  166.1215 C.ar    1  UNL1       -0.0078
      5 C         141.0361  142.7177  165.4209 C.ar    1  UNL1        0.0001
      6 C         141.0108  142.7793  163.9224 C.ar    1  UNL1        0.0366
      7 C         142.1329  141.8746  167.6200 C.3     1  UNL1        0.0772
      8 C         143.2681  142.3046  168.5012 C.3     1  UNL1        0.0221
      9 C         142.8641  142.0679  169.9262 C.3     1  UNL1        0.0268
     10 C         141.4791  141.4916  169.9258 C.3     1  UNL1        0.1315
     11 N         141.0273  141.3722  168.5005 N.3     1  UNL1       -0.2890
     12 H         140.1875  141.9326  168.3555 H       1  UNL1        0.1239
     13 C         140.6855  141.1031  171.1379 C.2     1  UNL1        0.2336
     14 N         140.0813  139.7334  171.2313 N.am    1  UNL1       -0.3277
     15 O         140.4960  142.0843  172.2565 O.2     1  UNL1       -0.2739
     16 H         140.2056  139.0894  170.4971 H       1  UNL1        0.1450
     17 H         139.5604  139.4783  172.0268 H       1  UNL1        0.1450
     18 O         142.0321  142.1210  161.6259 O.3     1  UNL1       -0.4706
     19 C         141.2987  141.0716  160.8444 C.3     1  UNL1        0.2327
     20 C         139.0652  140.3005  161.9247 C.ar    1  UNL1        0.0679
     21 C         138.2612  139.2565  162.6414 C.ar    1  UNL1        0.0101
     22 C         138.8867  137.9397  162.9947 C.ar    1  UNL1        0.0007
     23 C         140.3161  137.6669  162.6312 C.ar    1  UNL1       -0.0002
     24 C         141.1201  138.7108  161.9144 C.ar    1  UNL1       -0.0000
     25 C         140.4946  140.0276  161.5612 C.ar    1  UNL1        0.0308
     26 N         137.8142  142.9341  161.2182 N.1     1  UNL1       -0.1908
     27 C         138.4397  141.6173  161.5714 C.1     1  UNL1        0.1002
@<TRIPOS>BOND
     1    26    27    3
     2    27    20    1
     3    20    21   ar
     4    21    22   ar
     5    22    23   ar
     6    23    24   ar
     7    24    25   ar
     8    25    19    1
     9    19    18    1
    10    18     1    1
    11     1     2   ar
    12     2     3   ar
    13     3     4   ar
    14     7     4    1
    15     7     8    1
    16     8     9    1
    17     9    10    1
    18    10    13    1
    19    13    14   am
    20    13    15    2
    21    10    11    1
    22     4     5   ar
    23     5     6   ar
    24    25    20   ar
    25     6     1   ar
    26    11     7    1
    27    14    16    1
    28    14    17    1
    29    11    12    1
@<TRIPOS>MOLECULE
*****
 27 29 0 0 0
SMALL
GASTEIGER

@<TRIPOS>ATOM
      1 C         139.7184  138.4391  163.8959 C.ar    1  UNL1        0.1390
      2 C         138.4670  138.7263  164.6716 C.ar    1  UNL1        0.0366
      3 C         138.5429  139.4844  165.9637 C.ar    1  UNL1        0.0001
      4 C         139.8701  139.9552  166.4801 C.ar    1  UNL1       -0.0078
      5 C         141.1215  139.6681  165.7044 C.ar    1  UNL1        0.0001
      6 C         141.0456  138.9100  164.4123 C.ar    1  UNL1        0.0366
      7 C         139.9461  140.7134  167.7722 C.3     1  UNL1        0.0772
      8 C         139.3439  140.2904  169.0793 C.3     1  UNL1        0.0221
      9 C         139.6632  141.3432  170.0990 C.3     1  UNL1        0.0268
     10 C         140.4627  142.4169  169.4221 C.3     1  UNL1        0.1315
     11 N         140.6375  142.0276  167.9840 N.3     1  UNL1       -0.2890
     12 H         141.6302  141.9351  167.7687 H       1  UNL1        0.1239
     13 C         140.9940  143.6612  170.0695 C.2     1  UNL1        0.2336
     14 N         142.4281  143.7267  170.5043 N.am    1  UNL1       -0.3277
     15 O         140.0912  144.8402  170.2821 O.2     1  UNL1       -0.2739
     16 H         143.0206  142.9529  170.3647 H       1  UNL1        0.1450
     17 H         142.7769  144.5434  170.9292 H       1  UNL1        0.1450
     18 O         139.6424  137.6810  162.6038 O.3     1  UNL1       -0.4706
     19 C         138.6640  138.0978  161.5460 C.3     1  UNL1        0.2327
     20 C         138.6876  140.4996  160.5555 C.ar    1  UNL1        0.0679
     21 C         139.1082  141.4573  159.4804 C.ar    1  UNL1        0.0101
     22 C         139.9258  140.9710  158.3207 C.ar    1  UNL1        0.0007
     23 C         140.3228  139.5270  158.2360 C.ar    1  UNL1       -0.0002
     24 C         139.9022  138.5693  159.3111 C.ar    1  UNL1       -0.0000
     25 C         139.0846  139.0556  160.4709 C.ar    1  UNL1        0.0308
     26 N         137.0524  141.4722  162.8751 N.1     1  UNL1       -0.1908
     27 C         137.8700  140.9859  161.7153 C.1     1  UNL1        0.1002
@<TRIPOS>BOND
     1    26    27    3
     2    27    20    1
     3    20    21   ar
     4    21    22   ar
     5    22    23   ar
     6    23    24   ar
     7    24    25   ar
     8    25    19    1
     9    19    18    1
    10    18     1    1
    11     1     2   ar
    12     2     3   ar
    13     3     4   ar
    14     7     4    1
    15     7     8    1
    16     8     9    1
    17     9    10    1
    18    10    13    1
    19    13    14   am
    20    13    15    2
    21    10    11    1
    22     4     5   ar
    23     5     6   ar
    24    25    20   ar
    25     6     1   ar
    26    11     7    1
    27    14    16    1
    28    14    17    1
    29    11    12    1
@<TRIPOS>MOLECULE
*****
 27 29 0 0 0
SMALL
GASTEIGER

@<TRIPOS>ATOM
      1 C         140.9758  140.1973  163.1688 C.ar    1  UNL1        0.1390
      2 C         142.0953  139.8700  164.1120 C.ar    1  UNL1        0.0366
      3 C         141.8675  139.9232  165.5936 C.ar    1  UNL1        0.0001
      4 C         140.5202  140.3036  166.1320 C.ar    1  UNL1       -0.0078
      5 C         139.4007  140.6308  165.1888 C.ar    1  UNL1        0.0001
      6 C         139.6285  140.5777  163.7072 C.ar    1  UNL1        0.0366
      7 C         140.2922  140.3567  167.6137 C.3     1  UNL1        0.0772
      8 C         139.0681  139.8763  168.3352 C.3     1  UNL1        0.0221
      9 C         139.2678  140.1223  169.8014 C.3     1  UNL1        0.0268
     10 C         140.6154  140.7548  169.9860 C.3     1  UNL1        0.1315
     11 N         141.2485  140.8996  168.6339 N.3     1  UNL1       -0.2890
     12 H         142.1225  140.3747  168.6029 H       1  UNL1        0.1239
     13 C         141.2231  141.1695  171.2931 C.2     1  UNL1        0.2336
     14 N         142.5462  140.6046  171.7178 N.am    1  UNL1       -0.3277
     15 O         140.5078  142.1492  172.1755 O.2     1  UNL1       -0.2739
     16 H         143.0157  139.9617  171.1387 H       1  UNL1        0.1450
     17 H         142.9451  140.8768  172.5757 H       1  UNL1        0.1450
     18 O         141.2038  140.1441  161.6871 O.3     1  UNL1       -0.4706
     19 C         141.6783  141.3654  160.9570 C.3     1  UNL1        0.2327
     20 C         141.2708  143.6530  162.1193 C.ar    1  UNL1        0.0679
     21 C         141.7925  144.8308  162.8878 C.ar    1  UNL1        0.0101
     22 C         143.2434  144.8989  163.2624 C.ar    1  UNL1        0.0007
     23 C         144.1726  143.7892  162.8685 C.ar    1  UNL1       -0.0002
     24 C         143.6509  142.6114  162.1001 C.ar    1  UNL1       -0.0000
     25 C         142.2000  142.5433  161.7255 C.ar    1  UNL1        0.0308
     26 N         138.3690  143.5168  161.3702 N.1     1  UNL1       -0.1908
     27 C         139.8199  143.5849  161.7448 C.1     1  UNL1        0.1002
@<TRIPOS>BOND
     1    26    27    3
     2    27    20    1
     3    20    21   ar
     4    21    22   ar
     5    22    23   ar
     6    23    24   ar
     7    24    25   ar
     8    25    19    1
     9    19    18    1
    10    18     1    1
    11     1     2   ar
    12     2     3   ar
    13     3     4   ar
    14     7     4    1
    15     7     8    1
    16     8     9    1
    17     9    10    1
    18    10    13    1
    19    13    14   am
    20    13    15    2
    21    10    11    1
    22     4     5   ar
    23     5     6   ar
    24    25    20   ar
    25     6     1   ar
    26    11     7    1
    27    14    16    1
    28    14    17    1
    29    11    12    1
@<TRIPOS>MOLECULE
*****
 27 29 0 0 0
SMALL
GASTEIGER

@<TRIPOS>ATOM
      1 C         138.3210  142.6225  163.6840 C.ar    1  UNL1        0.1390
      2 C         138.5918  141.2547  164.2372 C.ar    1  UNL1        0.0366
      3 C         139.4473  141.0957  165.4589 C.ar    1  UNL1        0.0001
      4 C         140.0321  142.3044  166.1274 C.ar    1  UNL1       -0.0078
      5 C         139.7613  143.6722  165.5743 C.ar    1  UNL1        0.0001
      6 C         138.9057  143.8312  164.3525 C.ar    1  UNL1        0.0366
      7 C         140.8877  142.1455  167.3493 C.3     1  UNL1        0.0772
      8 C         142.3810  142.2759  167.4029 C.3     1  UNL1        0.0221
      9 C         142.8164  142.0392  168.8187 C.3     1  UNL1        0.0268
     10 C         141.5921  141.7624  169.6401 C.3     1  UNL1        0.1315
     11 N         140.4001  141.8281  168.7319 N.3     1  UNL1       -0.2890
     12 H         139.7624  142.5578  169.0500 H       1  UNL1        0.1239
     13 C         141.5647  141.4711  171.1112 C.2     1  UNL1        0.2336
     14 N         142.5190  140.4725  171.6960 N.am    1  UNL1       -0.3277
     15 O         140.5829  142.1786  171.9977 O.2     1  UNL1       -0.2739
     16 H         143.1633  140.0082  171.1141 H       1  UNL1        0.1450
     17 H         142.5010  140.2813  172.6615 H       1  UNL1        0.1450
     18 O         137.4654  142.7814  162.4622 O.3     1  UNL1       -0.4706
     19 C         138.0561  142.5684  161.1000 C.3     1  UNL1        0.2327
     20 C         140.4964  141.7477  160.7517 C.ar    1  UNL1        0.0679
     21 C         141.9455  142.0480  160.5073 C.ar    1  UNL1        0.0101
     22 C         142.4035  143.4695  160.3667 C.ar    1  UNL1        0.0007
     23 C         141.4124  144.5905  160.4705 C.ar    1  UNL1       -0.0002
     24 C         139.9633  144.2902  160.7149 C.ar    1  UNL1       -0.0000
     25 C         139.5053  142.8687  160.8555 C.ar    1  UNL1        0.0308
     26 N         139.5805  138.9048  161.0330 N.1     1  UNL1       -0.1908
     27 C         140.0385  140.3262  160.8924 C.1     1  UNL1        0.1002
@<TRIPOS>BOND
     1    26    27    3
     2    27    20    1
     3    20    21   ar
     4    21    22   ar
     5    22    23   ar
     6    23    24   ar
     7    24    25   ar
     8    25    19    1
     9    19    18    1
    10    18     1    1
    11     1     2   ar
    12     2     3   ar
    13     3     4   ar
    14     7     4    1
    15     7     8    1
    16     8     9    1
    17     9    10    1
    18    10    13    1
    19    13    14   am
    20    13    15    2
    21    10    11    1
    22     4     5   ar
    23     5     6   ar
    24    25    20   ar
    25     6     1   ar
    26    11     7    1
    27    14    16    1
    28    14    17    1
    29    11    12    1
