@<TRIPOS>MOLECULE
*****
 39 44 0 0 0
SMALL
GASTEIGER

@<TRIPOS>ATOM
      1 C         141.9016  138.0949  164.0340 C.3     1  UNL1        0.0932
      2 C         142.8890  138.4494  165.1061 C.3     1  UNL1        0.0286
      3 C         144.1024  139.2640  164.7685 C.3     1  UNL1        0.0193
      4 C         144.3285  139.7242  163.3588 C.3     1  UNL1        0.0700
      5 C         143.3411  139.3697  162.2867 C.3     1  UNL1        0.0193
      6 C         142.1276  138.5551  162.6243 C.3     1  UNL1        0.0286
      7 C         143.6489  139.2799  163.4956 C.3     1  UNL1        0.1562
      8 O         142.5516  138.5433  163.8008 O.3     1  UNL1       -0.3572
      9 N         145.5419  140.5388  163.0212 N.3     1  UNL1       -0.2926
     10 H         145.6469  140.5044  162.0072 H       1  UNL1        0.1236
     11 C         145.6077  141.9848  163.4145 C.3     1  UNL1        0.1152
     12 C         144.4174  142.8736  163.2064 C.ar    1  UNL1        0.0765
     13 C         143.7398  143.5078  164.3849 C.ar    1  UNL1        0.0193
     14 C         142.5496  144.3966  164.1768 C.ar    1  UNL1        0.0411
     15 C         142.0369  144.6512  162.7903 C.ar    1  UNL1        0.1708
     16 C         142.7144  144.0170  161.6119 C.ar    1  UNL1        0.1682
     17 N         143.9048  143.1281  161.8200 N.ar    1  UNL1       -0.2304
     18 N         142.2018  144.2715  160.2254 N.am    1  UNL1       -0.2639
     19 C         141.0115  145.1603  160.0173 C.2     1  UNL1        0.2718
     20 O         140.4988  145.4149  158.6308 O.2     1  UNL1       -0.2707
     21 C         140.3339  145.7946  161.1957 C.3     1  UNL1        0.2898
     22 O         140.8466  145.5400  162.5822 O.3     1  UNL1       -0.4628
     23 H         142.6465  143.8553  159.4520 H       1  UNL1        0.1565
     24 C         140.6882  137.2803  164.3715 C.3     1  UNL1        0.0320
     25 C         139.4919  137.9386  164.9926 C.3     1  UNL1        0.0327
     26 C         140.6714  141.5670  167.3787 C.ar    1  UNL1        0.2247
     27 C         140.2473  142.9327  166.9259 C.ar    1  UNL1        0.0549
     28 C         139.4302  143.0890  165.6778 C.ar    1  UNL1        0.0019
     29 C         139.0061  144.4547  165.2251 C.3     1  UNL1        0.0328
     30 C         139.0370  141.8795  164.8825 C.ar    1  UNL1        0.0950
     31 N         138.2198  142.0358  163.6344 N.ar    1  UNL1       -0.2403
     32 C         137.8267  140.8263  162.8390 C.ar    1  UNL1        0.1281
     33 C         138.2507  139.4605  163.2918 C.ar    1  UNL1        0.1566
     34 F         137.8575  138.2511  162.4964 F       1  UNL1       -0.2028
     35 C         139.0679  139.3043  164.5399 C.ar    1  UNL1        0.0261
     36 C         139.4610  140.5138  165.3352 C.ar    1  UNL1        0.0999
     37 N         140.2782  140.3576  166.5834 N.ar    1  UNL1       -0.2104
     38 C         142.6605  140.4748  168.6437 C.3     1  UNL1        0.2542
     39 O         141.4886  141.4108  168.6268 O.3     1  UNL1       -0.4561
@<TRIPOS>BOND
     1    38    39    1
     2    39    26    1
     3    26    27   ar
     4    27    28   ar
     5    28    29    1
     6    28    30   ar
     7    30    31   ar
     8    31    32   ar
     9    32    33   ar
    10    33    34    1
    11    33    35   ar
    12    35    25    1
    13    25    24    1
    14    24     1    1
    15     1     2    1
    16     2     3    1
    17     3     4    1
    18     4     9    1
    19     9    11    1
    20    11    12    1
    21    12    13   ar
    22    13    14   ar
    23    14    15   ar
    24    15    16   ar
    25    16    17   ar
    26    16    18    1
    27    18    19   am
    28    19    20    2
    29    19    21    1
    30    21    22    1
    31     4     5    1
    32     5     6    1
    33     4     7    1
    34     7     8    1
    35    35    36   ar
    36    36    37   ar
    37    37    26   ar
    38    36    30   ar
    39     6     1    1
    40     8     1    1
    41    17    12   ar
    42    22    15    1
    43     9    10    1
    44    18    23    1
@<TRIPOS>MOLECULE
*****
 39 44 0 0 0
SMALL
GASTEIGER

@<TRIPOS>ATOM
      1 C         142.0581  138.4574  164.3088 C.3     1  UNL1        0.0932
      2 C         141.9369  139.0462  162.9345 C.3     1  UNL1        0.0286
      3 C         143.0619  139.8583  162.3646 C.3     1  UNL1        0.0193
      4 C         144.3082  140.0817  163.1690 C.3     1  UNL1        0.0700
      5 C         144.4293  139.4928  164.5433 C.3     1  UNL1        0.0193
      6 C         143.3043  138.6807  165.1132 C.3     1  UNL1        0.0286
      7 C         143.7183  139.6296  163.5236 C.3     1  UNL1        0.1562
      8 O         142.7011  138.8953  164.0389 O.3     1  UNL1       -0.3572
      9 N         145.4332  140.8938  162.5992 N.3     1  UNL1       -0.2926
     10 H         145.3827  140.7960  161.5851 H       1  UNL1        0.1236
     11 C         145.5193  142.3630  162.8888 C.3     1  UNL1        0.1152
     12 C         144.2858  143.2140  162.8230 C.ar    1  UNL1        0.0765
     13 C         143.6980  143.7813  164.0810 C.ar    1  UNL1        0.0193
     14 C         142.4645  144.6323  164.0152 C.ar    1  UNL1        0.0411
     15 C         141.8187  144.9159  162.6914 C.ar    1  UNL1        0.1708
     16 C         142.4065  144.3486  161.4334 C.ar    1  UNL1        0.1682
     17 N         143.6400  143.4976  161.4991 N.ar    1  UNL1       -0.2304
     18 N         141.7607  144.6322  160.1095 N.am    1  UNL1       -0.2639
     19 C         140.5272  145.4831  160.0437 C.2     1  UNL1        0.2718
     20 O         139.8814  145.7667  158.7199 O.2     1  UNL1       -0.2707
     21 C         139.9394  146.0505  161.3018 C.3     1  UNL1        0.2898
     22 O         140.5852  145.7669  162.6256 O.3     1  UNL1       -0.4628
     23 H         142.1464  144.2598  159.2838 H       1  UNL1        0.1565
     24 C         140.9331  137.6453  164.8786 C.3     1  UNL1        0.0320
     25 C         139.8396  138.3187  165.6539 C.3     1  UNL1        0.0327
     26 C         137.8494  141.5108  163.1841 C.ar    1  UNL1        0.2247
     27 C         137.9846  142.9531  163.5729 C.ar    1  UNL1        0.0549
     28 C         138.7831  143.3315  164.7850 C.ar    1  UNL1        0.0019
     29 C         138.9182  144.7740  165.1738 C.3     1  UNL1        0.0328
     30 C         139.4465  142.2676  165.6083 C.ar    1  UNL1        0.0950
     31 N         140.2450  142.6460  166.8204 N.ar    1  UNL1       -0.2403
     32 C         140.9084  141.5820  167.6436 C.ar    1  UNL1        0.1281
     33 C         140.7733  140.1395  167.2548 C.ar    1  UNL1        0.1566
     34 F         141.4366  139.0755  168.0781 F       1  UNL1       -0.2028
     35 C         139.9747  139.7611  166.0427 C.ar    1  UNL1        0.0261
     36 C         139.3113  140.8252  165.2194 C.ar    1  UNL1        0.0999
     37 N         138.5128  140.4468  164.0073 N.ar    1  UNL1       -0.2104
     38 C         137.6101  140.1557  160.9803 C.3     1  UNL1        0.2542
     39 O         137.0509  141.1324  161.9720 O.3     1  UNL1       -0.4561
@<TRIPOS>BOND
     1    38    39    1
     2    39    26    1
     3    26    27   ar
     4    27    28   ar
     5    28    29    1
     6    28    30   ar
     7    30    31   ar
     8    31    32   ar
     9    32    33   ar
    10    33    34    1
    11    33    35   ar
    12    35    25    1
    13    25    24    1
    14    24     1    1
    15     1     2    1
    16     2     3    1
    17     3     4    1
    18     4     9    1
    19     9    11    1
    20    11    12    1
    21    12    13   ar
    22    13    14   ar
    23    14    15   ar
    24    15    16   ar
    25    16    17   ar
    26    16    18    1
    27    18    19   am
    28    19    20    2
    29    19    21    1
    30    21    22    1
    31     4     5    1
    32     5     6    1
    33     4     7    1
    34     7     8    1
    35    35    36   ar
    36    36    37   ar
    37    37    26   ar
    38    36    30   ar
    39     6     1    1
    40     8     1    1
    41    17    12   ar
    42    22    15    1
    43     9    10    1
    44    18    23    1
@<TRIPOS>MOLECULE
*****
 39 44 0 0 0
SMALL
GASTEIGER

@<TRIPOS>ATOM
      1 C         137.7504  142.6381  163.6935 C.3     1  UNL1        0.0932
      2 C         137.8930  141.4309  164.5724 C.3     1  UNL1        0.0286
      3 C         137.9915  140.0650  163.9605 C.3     1  UNL1        0.0193
      4 C         137.9474  139.9062  162.4695 C.3     1  UNL1        0.0700
      5 C         137.8048  141.1134  161.5906 C.3     1  UNL1        0.0193
      6 C         137.7063  142.4793  162.2026 C.3     1  UNL1        0.0286
      7 C         137.8898  140.6749  162.7588 C.3     1  UNL1        0.1562
      8 O         137.8007  141.9101  163.3121 O.3     1  UNL1       -0.3572
      9 N         138.0459  138.5403  161.8575 N.3     1  UNL1       -0.2926
     10 H         137.2948  138.4704  161.1709 H       1  UNL1        0.1236
     11 C         139.3072  138.1184  161.1639 C.3     1  UNL1        0.1152
     12 C         140.6378  138.3690  161.8093 C.ar    1  UNL1        0.0765
     13 C         141.7799  138.8972  160.9927 C.ar    1  UNL1        0.0193
     14 C         143.1105  139.1478  161.6380 C.ar    1  UNL1        0.0411
     15 C         143.2992  138.8702  163.1000 C.ar    1  UNL1        0.1708
     16 C         142.1572  138.3420  163.9166 C.ar    1  UNL1        0.1682
     17 N         140.8265  138.0914  163.2712 N.ar    1  UNL1       -0.2304
     18 N         142.3459  138.0645  165.3786 N.am    1  UNL1       -0.2639
     19 C         143.6766  138.3151  166.0239 C.2     1  UNL1        0.2718
     20 O         143.8653  138.0375  167.4859 O.2     1  UNL1       -0.2707
     21 C         144.8186  138.8433  165.2073 C.3     1  UNL1        0.2898
     22 O         144.6299  139.1209  163.7453 O.3     1  UNL1       -0.4628
     23 H         141.5964  137.7178  165.9145 H       1  UNL1        0.1565
     24 C         137.6519  144.0040  164.3055 C.3     1  UNL1        0.0320
     25 C         138.8740  144.6595  164.8774 C.3     1  UNL1        0.0327
     26 C         142.0641  142.1210  166.7825 C.ar    1  UNL1        0.2247
     27 C         143.3919  141.9523  166.1056 C.ar    1  UNL1        0.0549
     28 C         143.6565  142.6298  164.7937 C.ar    1  UNL1        0.0019
     29 C         144.9845  142.4610  164.1168 C.3     1  UNL1        0.0328
     30 C         142.5932  143.4759  164.1587 C.ar    1  UNL1        0.0950
     31 N         142.8577  144.1534  162.8468 N.ar    1  UNL1       -0.2403
     32 C         141.7944  144.9995  162.2118 C.ar    1  UNL1        0.1281
     33 C         140.4664  145.1683  162.8886 C.ar    1  UNL1        0.1566
     34 F         139.4031  146.0144  162.2536 F       1  UNL1       -0.2028
     35 C         140.2019  144.4908  164.2005 C.ar    1  UNL1        0.0261
     36 C         141.2653  143.6446  164.8356 C.ar    1  UNL1        0.0999
     37 N         141.0007  142.9672  166.1475 N.ar    1  UNL1       -0.2104
     38 C         140.8852  140.2560  168.1543 C.3     1  UNL1        0.2542
     39 O         141.7995  141.4436  168.0944 O.3     1  UNL1       -0.4561
@<TRIPOS>BOND
     1    38    39    1
     2    39    26    1
     3    26    27   ar
     4    27    28   ar
     5    28    29    1
     6    28    30   ar
     7    30    31   ar
     8    31    32   ar
     9    32    33   ar
    10    33    34    1
    11    33    35   ar
    12    35    25    1
    13    25    24    1
    14    24     1    1
    15     1     2    1
    16     2     3    1
    17     3     4    1
    18     4     9    1
    19     9    11    1
    20    11    12    1
    21    12    13   ar
    22    13    14   ar
    23    14    15   ar
    24    15    16   ar
    25    16    17   ar
    26    16    18    1
    27    18    19   am
    28    19    20    2
    29    19    21    1
    30    21    22    1
    31     4     5    1
    32     5     6    1
    33     4     7    1
    34     7     8    1
    35    35    36   ar
    36    36    37   ar
    37    37    26   ar
    38    36    30   ar
    39     6     1    1
    40     8     1    1
    41    17    12   ar
    42    22    15    1
    43     9    10    1
    44    18    23    1
@<TRIPOS>MOLECULE
*****
 39 44 0 0 0
SMALL
GASTEIGER

@<TRIPOS>ATOM
      1 C         142.1947  137.9691  163.3857 C.3     1  UNL1        0.0932
      2 C         142.5356  138.5504  164.7258 C.3     1  UNL1        0.0286
      3 C         143.6773  139.5144  164.8567 C.3     1  UNL1        0.0193
      4 C         144.4781  139.8973  163.6474 C.3     1  UNL1        0.0700
      5 C         144.1371  139.3161  162.3073 C.3     1  UNL1        0.0193
      6 C         142.9954  138.3520  162.1765 C.3     1  UNL1        0.0286
      7 C         143.8615  139.3652  163.5262 C.3     1  UNL1        0.1562
      8 O         142.8292  138.4935  163.4078 O.3     1  UNL1       -0.3572
      9 N         145.6197  140.8613  163.7783 N.3     1  UNL1       -0.2926
     10 H         146.4659  140.3520  163.5236 H       1  UNL1        0.1236
     11 C         145.6231  142.1324  162.9819 C.3     1  UNL1        0.1152
     12 C         144.4061  143.0090  162.9632 C.ar    1  UNL1        0.0765
     13 C         143.8607  143.5624  164.2464 C.ar    1  UNL1        0.0193
     14 C         142.6437  144.4391  164.2277 C.ar    1  UNL1        0.0411
     15 C         141.9721  144.7623  162.9260 C.ar    1  UNL1        0.1708
     16 C         142.5175  144.2090  161.6429 C.ar    1  UNL1        0.1682
     17 N         143.7346  143.3323  161.6615 N.ar    1  UNL1       -0.2304
     18 N         141.8459  144.5323  160.3412 N.am    1  UNL1       -0.2639
     19 C         140.6289  145.4089  160.3226 C.2     1  UNL1        0.2718
     20 O         139.9573  145.7322  159.0209 O.2     1  UNL1       -0.2707
     21 C         140.0834  145.9623  161.6057 C.3     1  UNL1        0.2898
     22 O         140.7550  145.6390  162.9074 O.3     1  UNL1       -0.4628
     23 H         142.2039  144.1691  159.4991 H       1  UNL1        0.1565
     24 C         141.0530  137.0051  163.2548 C.3     1  UNL1        0.0320
     25 C         139.6834  137.5075  162.9056 C.3     1  UNL1        0.0327
     26 C         139.3587  141.4502  160.7610 C.ar    1  UNL1        0.2247
     27 C         138.7950  142.6456  161.4703 C.ar    1  UNL1        0.0549
     28 C         138.3394  142.5267  162.8945 C.ar    1  UNL1        0.0019
     29 C         137.7756  143.7222  163.6038 C.3     1  UNL1        0.0328
     30 C         138.4476  141.2125  163.6094 C.ar    1  UNL1        0.0950
     31 N         137.9921  141.0937  165.0336 N.ar    1  UNL1       -0.2403
     32 C         138.1003  139.7795  165.7485 C.ar    1  UNL1        0.1281
     33 C         138.6641  138.5840  165.0392 C.ar    1  UNL1        0.1566
     34 F         138.7723  137.2698  165.7541 F       1  UNL1       -0.2028
     35 C         139.1196  138.7029  163.6150 C.ar    1  UNL1        0.0261
     36 C         139.0114  140.0172  162.9001 C.ar    1  UNL1        0.0999
     37 N         139.4669  140.1360  161.4759 N.ar    1  UNL1       -0.2104
     38 C         138.9851  142.3300  158.3451 C.3     1  UNL1        0.2542
     39 O         139.8143  141.5690  159.3368 O.3     1  UNL1       -0.4561
@<TRIPOS>BOND
     1    38    39    1
     2    39    26    1
     3    26    27   ar
     4    27    28   ar
     5    28    29    1
     6    28    30   ar
     7    30    31   ar
     8    31    32   ar
     9    32    33   ar
    10    33    34    1
    11    33    35   ar
    12    35    25    1
    13    25    24    1
    14    24     1    1
    15     1     2    1
    16     2     3    1
    17     3     4    1
    18     4     9    1
    19     9    11    1
    20    11    12    1
    21    12    13   ar
    22    13    14   ar
    23    14    15   ar
    24    15    16   ar
    25    16    17   ar
    26    16    18    1
    27    18    19   am
    28    19    20    2
    29    19    21    1
    30    21    22    1
    31     4     5    1
    32     5     6    1
    33     4     7    1
    34     7     8    1
    35    35    36   ar
    36    36    37   ar
    37    37    26   ar
    38    36    30   ar
    39     6     1    1
    40     8     1    1
    41    17    12   ar
    42    22    15    1
    43     9    10    1
    44    18    23    1
@<TRIPOS>MOLECULE
*****
 39 44 0 0 0
SMALL
GASTEIGER

@<TRIPOS>ATOM
      1 C         137.7508  142.6491  163.7316 C.3     1  UNL1        0.0932
      2 C         137.8895  141.4326  164.5982 C.3     1  UNL1        0.0286
      3 C         137.9287  140.0686  163.9754 C.3     1  UNL1        0.0193
      4 C         137.8292  139.9210  162.4859 C.3     1  UNL1        0.0700
      5 C         137.6905  141.1375  161.6193 C.3     1  UNL1        0.0193
      6 C         137.6513  142.5015  162.2422 C.3     1  UNL1        0.0286
      7 C         137.8031  140.6891  162.7814 C.3     1  UNL1        0.1562
      8 O         137.7677  141.9225  163.3445 O.3     1  UNL1       -0.3572
      9 N         137.8684  138.5570  161.8631 N.3     1  UNL1       -0.2926
     10 H         137.3254  138.6111  161.0014 H       1  UNL1        0.1236
     11 C         139.1850  137.9327  161.5068 C.3     1  UNL1        0.1152
     12 C         140.3659  138.1023  162.4160 C.ar    1  UNL1        0.0765
     13 C         140.4418  137.3288  163.6991 C.ar    1  UNL1        0.0193
     14 C         141.6227  137.4983  164.6083 C.ar    1  UNL1        0.0411
     15 C         142.7278  138.4413  164.2345 C.ar    1  UNL1        0.1708
     16 C         142.6519  139.2147  162.9515 C.ar    1  UNL1        0.1682
     17 N         141.4709  139.0452  162.0423 N.ar    1  UNL1       -0.2304
     18 N         143.7570  140.1576  162.5778 N.am    1  UNL1       -0.2639
     19 C         144.9379  140.3272  163.4870 C.2     1  UNL1        0.2718
     20 O         146.0429  141.2701  163.1132 O.2     1  UNL1       -0.2707
     21 C         145.0138  139.5537  164.7700 C.3     1  UNL1        0.2898
     22 O         143.9087  138.6108  165.1438 O.3     1  UNL1       -0.4628
     23 H         143.7072  140.6653  161.7357 H       1  UNL1        0.1565
     24 C         137.7116  144.0131  164.3544 C.3     1  UNL1        0.0320
     25 C         138.9886  144.7565  164.6130 C.3     1  UNL1        0.0327
     26 C         140.6157  145.0717  160.4293 C.ar    1  UNL1        0.2247
     27 C         141.9331  144.4411  160.0875 C.ar    1  UNL1        0.0549
     28 C         142.7081  143.7055  161.1402 C.ar    1  UNL1        0.0019
     29 C         144.0255  143.0749  160.7983 C.3     1  UNL1        0.0328
     30 C         142.1657  143.6004  162.5347 C.ar    1  UNL1        0.0950
     31 N         142.9407  142.8648  163.5875 N.ar    1  UNL1       -0.2403
     32 C         142.3984  142.7597  164.9820 C.ar    1  UNL1        0.1281
     33 C         141.0809  143.3903  165.3239 C.ar    1  UNL1        0.1566
     34 F         140.5386  143.2852  166.7184 F       1  UNL1       -0.2028
     35 C         140.3059  144.1259  164.2711 C.ar    1  UNL1        0.0261
     36 C         140.8484  144.2310  162.8766 C.ar    1  UNL1        0.0999
     37 N         140.0734  144.9666  161.8238 N.ar    1  UNL1       -0.2104
     38 C         140.3306  145.8240  157.9590 C.3     1  UNL1        0.2542
     39 O         139.8407  145.8073  159.3766 O.3     1  UNL1       -0.4561
@<TRIPOS>BOND
     1    38    39    1
     2    39    26    1
     3    26    27   ar
     4    27    28   ar
     5    28    29    1
     6    28    30   ar
     7    30    31   ar
     8    31    32   ar
     9    32    33   ar
    10    33    34    1
    11    33    35   ar
    12    35    25    1
    13    25    24    1
    14    24     1    1
    15     1     2    1
    16     2     3    1
    17     3     4    1
    18     4     9    1
    19     9    11    1
    20    11    12    1
    21    12    13   ar
    22    13    14   ar
    23    14    15   ar
    24    15    16   ar
    25    16    17   ar
    26    16    18    1
    27    18    19   am
    28    19    20    2
    29    19    21    1
    30    21    22    1
    31     4     5    1
    32     5     6    1
    33     4     7    1
    34     7     8    1
    35    35    36   ar
    36    36    37   ar
    37    37    26   ar
    38    36    30   ar
    39     6     1    1
    40     8     1    1
    41    17    12   ar
    42    22    15    1
    43     9    10    1
    44    18    23    1
@<TRIPOS>MOLECULE
*****
 39 44 0 0 0
SMALL
GASTEIGER

@<TRIPOS>ATOM
      1 C         144.2349  139.7231  163.6525 C.3     1  UNL1        0.0932
      2 C         143.3820  139.2817  164.8048 C.3     1  UNL1        0.0286
      3 C         142.1864  138.4091  164.5618 C.3     1  UNL1        0.0193
      4 C         141.8437  137.9778  163.1666 C.3     1  UNL1        0.0700
      5 C         142.6967  138.4191  162.0143 C.3     1  UNL1        0.0193
      6 C         143.8923  139.2918  162.2573 C.3     1  UNL1        0.0286
      7 C         142.5087  138.4561  163.2502 C.3     1  UNL1        0.1562
      8 O         143.5898  139.2451  163.4699 O.3     1  UNL1       -0.3572
      9 N         140.6482  137.1051  162.9237 N.3     1  UNL1       -0.2926
     10 H         140.7875  136.2558  163.4710 H       1  UNL1        0.1236
     11 C         139.2733  137.6091  163.2487 C.3     1  UNL1        0.1152
     12 C         138.8980  139.0252  162.9265 C.ar    1  UNL1        0.0765
     13 C         138.3942  139.3747  161.5575 C.ar    1  UNL1        0.0193
     14 C         138.0189  140.7907  161.2353 C.ar    1  UNL1        0.0411
     15 C         138.1473  141.8574  162.2821 C.ar    1  UNL1        0.1708
     16 C         138.6510  141.5080  163.6511 C.ar    1  UNL1        0.1682
     17 N         139.0263  140.0918  163.9733 N.ar    1  UNL1       -0.2304
     18 N         138.7794  142.5746  164.6979 N.am    1  UNL1       -0.2639
     19 C         138.4040  143.9907  164.3757 C.2     1  UNL1        0.2718
     20 O         138.5324  145.0573  165.4225 O.2     1  UNL1       -0.2707
     21 C         137.9003  144.3402  163.0066 C.3     1  UNL1        0.2898
     22 O         137.7719  143.2735  161.9599 O.3     1  UNL1       -0.4628
     23 H         139.1100  142.3453  165.5964 H       1  UNL1        0.1565
     24 C         145.4305  140.5957  163.8954 C.3     1  UNL1        0.0320
     25 C         145.4819  141.9769  163.3124 C.3     1  UNL1        0.0327
     26 C         143.7130  142.8781  159.2740 C.ar    1  UNL1        0.2247
     27 C         142.4595  143.6953  159.1697 C.ar    1  UNL1        0.0549
     28 C         141.7956  144.2120  160.4116 C.ar    1  UNL1        0.0019
     29 C         140.5420  145.0293  160.3072 C.3     1  UNL1        0.0328
     30 C         142.3852  143.9117  161.7577 C.ar    1  UNL1        0.0950
     31 N         141.7213  144.4284  162.9995 N.ar    1  UNL1       -0.2403
     32 C         142.3109  144.1280  164.3456 C.ar    1  UNL1        0.1281
     33 C         143.5645  143.3108  164.4500 C.ar    1  UNL1        0.1566
     34 F         144.1541  143.0104  165.7961 F       1  UNL1       -0.2028
     35 C         144.2284  142.7941  163.2081 C.ar    1  UNL1        0.0261
     36 C         143.6387  143.0945  161.8619 C.ar    1  UNL1        0.0999
     37 N         144.3026  142.5777  160.6201 N.ar    1  UNL1       -0.2104
     38 C         144.4808  140.8836  157.7967 C.3     1  UNL1        0.2542
     39 O         144.3769  142.3613  158.0321 O.3     1  UNL1       -0.4561
@<TRIPOS>BOND
     1    38    39    1
     2    39    26    1
     3    26    27   ar
     4    27    28   ar
     5    28    29    1
     6    28    30   ar
     7    30    31   ar
     8    31    32   ar
     9    32    33   ar
    10    33    34    1
    11    33    35   ar
    12    35    25    1
    13    25    24    1
    14    24     1    1
    15     1     2    1
    16     2     3    1
    17     3     4    1
    18     4     9    1
    19     9    11    1
    20    11    12    1
    21    12    13   ar
    22    13    14   ar
    23    14    15   ar
    24    15    16   ar
    25    16    17   ar
    26    16    18    1
    27    18    19   am
    28    19    20    2
    29    19    21    1
    30    21    22    1
    31     4     5    1
    32     5     6    1
    33     4     7    1
    34     7     8    1
    35    35    36   ar
    36    36    37   ar
    37    37    26   ar
    38    36    30   ar
    39     6     1    1
    40     8     1    1
    41    17    12   ar
    42    22    15    1
    43     9    10    1
    44    18    23    1
@<TRIPOS>MOLECULE
*****
 39 44 0 0 0
SMALL
GASTEIGER

@<TRIPOS>ATOM
      1 C         141.3616  139.9907  166.3396 C.3     1  UNL1        0.0932
      2 C         142.0952  138.9177  165.5910 C.3     1  UNL1        0.0286
      3 C         143.3729  139.2422  164.8753 C.3     1  UNL1        0.0193
      4 C         143.9169  140.6397  164.9082 C.3     1  UNL1        0.0700
      5 C         143.1832  141.7127  165.6568 C.3     1  UNL1        0.0193
      6 C         141.9055  141.3881  166.3726 C.3     1  UNL1        0.0286
      7 C         143.2132  140.5099  165.3155 C.3     1  UNL1        0.1562
      8 O         142.0579  140.2165  165.9627 O.3     1  UNL1       -0.3572
      9 N         145.1945  140.9642  164.1924 N.3     1  UNL1       -0.2926
     10 H         145.3143  140.2561  163.4681 H       1  UNL1        0.1236
     11 C         145.3633  142.2977  163.5265 C.3     1  UNL1        0.1152
     12 C         144.3968  142.7340  162.4657 C.ar    1  UNL1        0.0765
     13 C         144.5057  142.1774  161.0770 C.ar    1  UNL1        0.0193
     14 C         143.5392  142.6137  160.0162 C.ar    1  UNL1        0.0411
     15 C         142.4636  143.6066  160.3440 C.ar    1  UNL1        0.1708
     16 C         142.3547  144.1631  161.7326 C.ar    1  UNL1        0.1682
     17 N         143.3213  143.7269  162.7935 N.ar    1  UNL1       -0.2304
     18 N         141.2792  145.1560  162.0604 N.am    1  UNL1       -0.2639
     19 C         140.3126  145.5923  160.9996 C.2     1  UNL1        0.2718
     20 O         139.2371  146.5852  161.3274 O.2     1  UNL1       -0.2707
     21 C         140.4215  145.0357  159.6109 C.3     1  UNL1        0.2898
     22 O         141.4971  144.0428  159.2831 O.3     1  UNL1       -0.4628
     23 H         141.2077  145.5213  162.9718 H       1  UNL1        0.1565
     24 C         140.0840  139.6662  167.0554 C.3     1  UNL1        0.0320
     25 C         138.7742  139.7554  166.3297 C.3     1  UNL1        0.0327
     26 C         138.2121  143.0357  163.3009 C.ar    1  UNL1        0.2247
     27 C         138.1400  142.7033  161.8400 C.ar    1  UNL1        0.0549
     28 C         138.2552  141.2775  161.3887 C.ar    1  UNL1        0.0019
     29 C         138.1831  140.9451  159.9277 C.3     1  UNL1        0.0328
     30 C         138.4426  140.1841  162.3982 C.ar    1  UNL1        0.0950
     31 N         138.5578  138.7582  161.9469 N.ar    1  UNL1       -0.2403
     32 C         138.7451  137.6648  162.9564 C.ar    1  UNL1        0.1281
     33 C         138.8173  137.9971  164.4174 C.ar    1  UNL1        0.1566
     34 F         139.0046  136.9037  165.4269 F       1  UNL1       -0.2028
     35 C         138.7021  139.4230  164.8688 C.ar    1  UNL1        0.0261
     36 C         138.5147  140.5164  163.8591 C.ar    1  UNL1        0.0999
     37 N         138.3995  141.9423  164.3105 N.ar    1  UNL1       -0.2104
     38 C         138.8508  144.9285  164.9620 C.3     1  UNL1        0.2542
     39 O         138.0969  144.4616  163.7523 O.3     1  UNL1       -0.4561
@<TRIPOS>BOND
     1    38    39    1
     2    39    26    1
     3    26    27   ar
     4    27    28   ar
     5    28    29    1
     6    28    30   ar
     7    30    31   ar
     8    31    32   ar
     9    32    33   ar
    10    33    34    1
    11    33    35   ar
    12    35    25    1
    13    25    24    1
    14    24     1    1
    15     1     2    1
    16     2     3    1
    17     3     4    1
    18     4     9    1
    19     9    11    1
    20    11    12    1
    21    12    13   ar
    22    13    14   ar
    23    14    15   ar
    24    15    16   ar
    25    16    17   ar
    26    16    18    1
    27    18    19   am
    28    19    20    2
    29    19    21    1
    30    21    22    1
    31     4     5    1
    32     5     6    1
    33     4     7    1
    34     7     8    1
    35    35    36   ar
    36    36    37   ar
    37    37    26   ar
    38    36    30   ar
    39     6     1    1
    40     8     1    1
    41    17    12   ar
    42    22    15    1
    43     9    10    1
    44    18    23    1
@<TRIPOS>MOLECULE
*****
 39 44 0 0 0
SMALL
GASTEIGER

@<TRIPOS>ATOM
      1 C         139.8105  138.2885  164.0955 C.3     1  UNL1        0.0932
      2 C         139.1253  139.0465  165.1937 C.3     1  UNL1        0.0286
      3 C         138.1732  140.1559  164.8584 C.3     1  UNL1        0.0193
      4 C         137.9060  140.5074  163.4248 C.3     1  UNL1        0.0700
      5 C         138.5912  139.7495  162.3266 C.3     1  UNL1        0.0193
      6 C         139.5434  138.6400  162.6619 C.3     1  UNL1        0.0286
      7 C         138.4359  139.8917  163.5594 C.3     1  UNL1        0.1562
      8 O         139.2969  138.8885  163.8625 O.3     1  UNL1       -0.3572
      9 N         136.9539  141.6169  163.0895 N.3     1  UNL1       -0.2926
     10 H         136.1173  141.4674  163.6536 H       1  UNL1        0.1236
     11 C         137.3644  143.0450  163.2938 C.3     1  UNL1        0.1152
     12 C         138.4068  143.6599  162.4076 C.ar    1  UNL1        0.0765
     13 C         139.2688  144.7734  162.9245 C.ar    1  UNL1        0.0193
     14 C         140.3111  145.3883  162.0382 C.ar    1  UNL1        0.0411
     15 C         140.4915  144.8896  160.6351 C.ar    1  UNL1        0.1708
     16 C         139.6296  143.7762  160.1182 C.ar    1  UNL1        0.1682
     17 N         138.5872  143.1613  161.0044 N.ar    1  UNL1       -0.2304
     18 N         139.8100  143.2776  158.7150 N.am    1  UNL1       -0.2639
     19 C         140.8523  143.8924  157.8288 C.2     1  UNL1        0.2718
     20 O         141.0327  143.3938  156.4256 O.2     1  UNL1       -0.2707
     21 C         141.7143  145.0059  158.3457 C.3     1  UNL1        0.2898
     22 O         141.5339  145.5046  159.7488 O.3     1  UNL1       -0.4628
     23 H         139.2442  142.5468  158.3758 H       1  UNL1        0.1565
     24 C         140.7626  137.1791  164.4308 C.3     1  UNL1        0.0320
     25 C         142.1460  137.4986  164.9150 C.3     1  UNL1        0.0327
     26 C         142.4536  141.0468  167.6656 C.ar    1  UNL1        0.2247
     27 C         143.1401  142.2974  167.2025 C.ar    1  UNL1        0.0549
     28 C         143.7241  142.3654  165.8225 C.ar    1  UNL1        0.0019
     29 C         144.4107  143.6161  165.3594 C.3     1  UNL1        0.0328
     30 C         143.6216  141.1827  164.9056 C.ar    1  UNL1        0.0950
     31 N         144.2055  141.2507  163.5257 N.ar    1  UNL1       -0.2403
     32 C         144.1030  140.0680  162.6088 C.ar    1  UNL1        0.1281
     33 C         143.4165  138.8172  163.0719 C.ar    1  UNL1        0.1566
     34 F         143.3139  137.6345  162.1550 F       1  UNL1       -0.2028
     35 C         142.8325  138.7493  164.4519 C.ar    1  UNL1        0.0261
     36 C         142.9350  139.9321  165.3688 C.ar    1  UNL1        0.0999
     37 N         142.3511  139.8641  166.7487 N.ar    1  UNL1       -0.2104
     38 C         141.9691  139.7107  169.8405 C.3     1  UNL1        0.2542
     39 O         141.8696  140.9789  169.0456 O.3     1  UNL1       -0.4561
@<TRIPOS>BOND
     1    38    39    1
     2    39    26    1
     3    26    27   ar
     4    27    28   ar
     5    28    29    1
     6    28    30   ar
     7    30    31   ar
     8    31    32   ar
     9    32    33   ar
    10    33    34    1
    11    33    35   ar
    12    35    25    1
    13    25    24    1
    14    24     1    1
    15     1     2    1
    16     2     3    1
    17     3     4    1
    18     4     9    1
    19     9    11    1
    20    11    12    1
    21    12    13   ar
    22    13    14   ar
    23    14    15   ar
    24    15    16   ar
    25    16    17   ar
    26    16    18    1
    27    18    19   am
    28    19    20    2
    29    19    21    1
    30    21    22    1
    31     4     5    1
    32     5     6    1
    33     4     7    1
    34     7     8    1
    35    35    36   ar
    36    36    37   ar
    37    37    26   ar
    38    36    30   ar
    39     6     1    1
    40     8     1    1
    41    17    12   ar
    42    22    15    1
    43     9    10    1
    44    18    23    1
@<TRIPOS>MOLECULE
*****
 39 44 0 0 0
SMALL
GASTEIGER

@<TRIPOS>ATOM
      1 C         144.6612  141.9286  163.6158 C.3     1  UNL1        0.0932
      2 C         144.2314  142.1631  162.1979 C.3     1  UNL1        0.0286
      3 C         143.3595  143.3368  161.8629 C.3     1  UNL1        0.0193
      4 C         142.9175  144.2760  162.9457 C.3     1  UNL1        0.0700
      5 C         143.3473  144.0415  164.3635 C.3     1  UNL1        0.0193
      6 C         144.2192  142.8678  164.6986 C.3     1  UNL1        0.0286
      7 C         143.3949  143.6467  163.1778 C.3     1  UNL1        0.1562
      8 O         144.1833  142.5854  163.4808 O.3     1  UNL1       -0.3572
      9 N         142.0456  145.4497  162.6107 N.3     1  UNL1       -0.2926
     10 H         142.1397  145.6096  161.6077 H       1  UNL1        0.1236
     11 C         140.5756  145.4004  162.9053 C.3     1  UNL1        0.1152
     12 C         139.8059  144.1344  162.6714 C.ar    1  UNL1        0.0765
     13 C         139.1062  143.4601  163.8141 C.ar    1  UNL1        0.0193
     14 C         138.3364  142.1941  163.5802 C.ar    1  UNL1        0.0411
     15 C         138.2664  141.6023  162.2037 C.ar    1  UNL1        0.1708
     16 C         138.9661  142.2766  161.0610 C.ar    1  UNL1        0.1682
     17 N         139.7359  143.5426  161.2948 N.ar    1  UNL1       -0.2304
     18 N         138.8961  141.6848  159.6844 N.am    1  UNL1       -0.2639
     19 C         138.1264  140.4188  159.4506 C.2     1  UNL1        0.2718
     20 O         138.0564  139.8271  158.0740 O.2     1  UNL1       -0.2707
     21 C         137.4266  139.7445  160.5933 C.3     1  UNL1        0.2898
     22 O         137.4966  140.3363  161.9698 O.3     1  UNL1       -0.4628
     23 H         139.3554  142.1274  158.9345 H       1  UNL1        0.1565
     24 C         145.5331  140.7549  163.9508 C.3     1  UNL1        0.0320
     25 C         144.9241  139.5040  164.5115 C.3     1  UNL1        0.0327
     26 C         141.7449  140.4801  167.5430 C.ar    1  UNL1        0.2247
     27 C         140.3096  140.1513  167.2570 C.ar    1  UNL1        0.0549
     28 C         139.9341  139.4972  165.9605 C.ar    1  UNL1        0.0019
     29 C         138.4987  139.1684  165.6744 C.3     1  UNL1        0.0328
     30 C         140.9937  139.1718  164.9500 C.ar    1  UNL1        0.0950
     31 N         140.6182  138.5176  163.6534 N.ar    1  UNL1       -0.2403
     32 C         141.6779  138.1923  162.6429 C.ar    1  UNL1        0.1281
     33 C         143.1132  138.5211  162.9289 C.ar    1  UNL1        0.1566
     34 F         144.1729  138.1957  161.9185 F       1  UNL1       -0.2028
     35 C         143.4888  139.1752  164.2255 C.ar    1  UNL1        0.0261
     36 C         142.4290  139.5006  165.2360 C.ar    1  UNL1        0.0999
     37 N         142.8046  140.1548  166.5325 N.ar    1  UNL1       -0.2104
     38 C         143.0750  142.2913  168.8470 C.3     1  UNL1        0.2542
     39 O         142.1205  141.1343  168.8396 O.3     1  UNL1       -0.4561
@<TRIPOS>BOND
     1    38    39    1
     2    39    26    1
     3    26    27   ar
     4    27    28   ar
     5    28    29    1
     6    28    30   ar
     7    30    31   ar
     8    31    32   ar
     9    32    33   ar
    10    33    34    1
    11    33    35   ar
    12    35    25    1
    13    25    24    1
    14    24     1    1
    15     1     2    1
    16     2     3    1
    17     3     4    1
    18     4     9    1
    19     9    11    1
    20    11    12    1
    21    12    13   ar
    22    13    14   ar
    23    14    15   ar
    24    15    16   ar
    25    16    17   ar
    26    16    18    1
    27    18    19   am
    28    19    20    2
    29    19    21    1
    30    21    22    1
    31     4     5    1
    32     5     6    1
    33     4     7    1
    34     7     8    1
    35    35    36   ar
    36    36    37   ar
    37    37    26   ar
    38    36    30   ar
    39     6     1    1
    40     8     1    1
    41    17    12   ar
    42    22    15    1
    43     9    10    1
    44    18    23    1
