@<TRIPOS>MOLECULE
*****
 32 36 0 0 0
SMALL
GASTEIGER

@<TRIPOS>ATOM
      1 C         138.5381  139.3712  164.4550 C.ar    1  UNL1        0.1564
      2 C         138.9875  137.9620  164.2061 C.ar    1  UNL1        0.0385
      3 C         139.3646  137.5287  162.8204 C.ar    1  UNL1        0.0033
      4 C         139.2923  138.5047  161.6837 C.ar    1  UNL1        0.0048
      5 C         138.8429  139.9139  161.9326 C.ar    1  UNL1        0.0567
      6 C         138.4658  140.3472  163.3183 C.ar    1  UNL1        0.1209
      7 N         138.0165  141.7566  163.5672 N.ar    1  UNL1       -0.2108
      8 C         137.9442  142.7326  162.4305 C.ar    1  UNL1        0.2163
      9 N         137.4948  144.1419  162.6794 N.pl3   1  UNL1       -0.3274
     10 N         138.3212  142.2993  161.0448 N.ar    1  UNL1       -0.1813
     11 N         138.3497  143.0328  159.7367 N.ar    1  UNL1       -0.1451
     12 C         138.8167  142.0768  158.6793 C.ar    1  UNL1        0.1769
     13 N         139.0768  140.7525  159.3340 N.ar    1  UNL1       -0.2086
     14 C         138.7706  140.8900  160.7959 C.ar    1  UNL1        0.1695
     15 H         137.2473  144.4263  163.5889 H       1  UNL1        0.1452
     16 H         137.4474  144.7825  161.9333 H       1  UNL1        0.1452
     17 C         137.8285  138.7783  166.8829 C.3     1  UNL1        0.2525
     18 O         138.1611  139.8045  165.8407 O.3     1  UNL1       -0.4699
     19 C         138.9927  142.3902  157.2230 C.3     1  UNL1        0.1408
     20 N         139.0317  143.8171  156.7622 N.3     1  UNL1       -0.2644
     21 C         140.0059  144.7776  157.3775 C.3     1  UNL1        0.0942
     22 C         140.0449  146.2045  156.9168 C.3     1  UNL1        0.1100
     23 N         139.1097  146.6710  155.8407 N.pl3   1  UNL1       -0.2854
     24 C         138.1355  145.7106  155.2255 C.3     1  UNL1        0.1085
     25 C         138.0965  144.2836  155.6862 C.3     1  UNL1        0.0778
     26 C         137.1224  143.3232  155.0710 C.3     1  UNL1        0.0192
     27 C         139.1487  148.0980  155.3800 C.ar    1  UNL1        0.1629
     28 N         138.5138  149.2663  156.0741 N.ar    1  UNL1       -0.2229
     29 C         138.8021  150.4975  155.2673 C.ar    1  UNL1        0.1030
     30 C         139.6152  150.0902  154.0745 C.ar    1  UNL1        0.0293
     31 C         140.1247  151.0051  153.0006 C.3     1  UNL1        0.0399
     32 S         139.8295  148.6071  154.1440 S.2     1  UNL1       -0.0558
@<TRIPOS>BOND
     1    17    18    1
     2    18     1    1
     3     1     2   ar
     4     2     3   ar
     5     3     4   ar
     6     4     5   ar
     7     5     6   ar
     8     6     7   ar
     9     7     8   ar
    10     8     9    1
    11     8    10   ar
    12    10    11   ar
    13    11    12   ar
    14    12    19    1
    15    19    20    1
    16    20    21    1
    17    21    22    1
    18    22    23    1
    19    23    27    1
    20    27    28   ar
    21    28    29   ar
    22    29    30   ar
    23    30    31    1
    24    30    32   ar
    25    23    24    1
    26    24    25    1
    27    25    26    1
    28    12    13   ar
    29    13    14   ar
    30     6     1   ar
    31    14    10   ar
    32    14     5   ar
    33    25    20    1
    34    32    27   ar
    35     9    15    1
    36     9    16    1
@<TRIPOS>MOLECULE
*****
 32 36 0 0 0
SMALL
GASTEIGER

@<TRIPOS>ATOM
      1 C         141.1748  141.5473  169.0093 C.ar    1  UNL1        0.1564
      2 C         142.4365  142.2981  168.7022 C.ar    1  UNL1        0.0385
      3 C         143.0690  142.1794  167.3473 C.ar    1  UNL1        0.0033
      4 C         142.4397  141.3100  166.2994 C.ar    1  UNL1        0.0048
      5 C         141.1780  140.5593  166.6064 C.ar    1  UNL1        0.0567
      6 C         140.5455  140.6779  167.9614 C.ar    1  UNL1        0.1209
      7 N         139.2837  139.9271  168.2684 N.ar    1  UNL1       -0.2108
      8 C         138.6544  139.0577  167.2206 C.ar    1  UNL1        0.2163
      9 N         137.3926  138.3069  167.5276 N.pl3   1  UNL1       -0.3274
     10 N         139.2869  138.9391  165.8656 N.ar    1  UNL1       -0.1813
     11 N         138.8987  138.1646  164.6411 N.ar    1  UNL1       -0.1451
     12 C         139.9206  138.4366  163.5773 C.ar    1  UNL1        0.1769
     13 N         140.9403  139.3793  164.1443 N.ar    1  UNL1       -0.2086
     14 C         140.5486  139.6898  165.5585 C.ar    1  UNL1        0.1695
     15 H         136.9775  138.3848  168.4169 H       1  UNL1        0.1452
     16 H         136.9796  137.7363  166.8398 H       1  UNL1        0.1452
     17 C         140.8656  140.6645  171.4331 C.3     1  UNL1        0.2525
     18 O         140.5423  141.6660  170.3642 O.3     1  UNL1       -0.4699
     19 C         139.9224  137.8662  162.1899 C.3     1  UNL1        0.1408
     20 N         139.3187  138.6440  161.0584 N.3     1  UNL1       -0.2644
     21 C         137.9031  139.1310  161.1542 C.3     1  UNL1        0.0942
     22 C         137.2994  139.9089  160.0226 C.3     1  UNL1        0.1100
     23 N         138.1112  140.1998  158.7952 N.pl3   1  UNL1       -0.2854
     24 C         139.5267  139.7128  158.6994 C.3     1  UNL1        0.1085
     25 C         140.1304  138.9349  159.8310 C.3     1  UNL1        0.0778
     26 C         141.5459  138.4479  159.7352 C.3     1  UNL1        0.0192
     27 C         137.5075  140.9776  157.6637 C.ar    1  UNL1        0.1629
     28 N         136.3990  140.5125  156.7666 N.ar    1  UNL1       -0.2229
     29 C         136.1126  141.6046  155.7790 C.ar    1  UNL1        0.1030
     30 C         137.0442  142.7447  156.0657 C.ar    1  UNL1        0.0293
     31 C         137.1033  144.0442  155.3189 C.3     1  UNL1        0.0399
     32 S         137.9063  142.3573  157.2305 S.2     1  UNL1       -0.0558
@<TRIPOS>BOND
     1    17    18    1
     2    18     1    1
     3     1     2   ar
     4     2     3   ar
     5     3     4   ar
     6     4     5   ar
     7     5     6   ar
     8     6     7   ar
     9     7     8   ar
    10     8     9    1
    11     8    10   ar
    12    10    11   ar
    13    11    12   ar
    14    12    19    1
    15    19    20    1
    16    20    21    1
    17    21    22    1
    18    22    23    1
    19    23    27    1
    20    27    28   ar
    21    28    29   ar
    22    29    30   ar
    23    30    31    1
    24    30    32   ar
    25    23    24    1
    26    24    25    1
    27    25    26    1
    28    12    13   ar
    29    13    14   ar
    30     6     1   ar
    31    14    10   ar
    32    14     5   ar
    33    25    20    1
    34    32    27   ar
    35     9    15    1
    36     9    16    1
@<TRIPOS>MOLECULE
*****
 32 36 0 0 0
SMALL
GASTEIGER

@<TRIPOS>ATOM
      1 C         138.4373  139.6367  169.3191 C.ar    1  UNL1        0.1564
      2 C         137.7246  138.9794  168.1745 C.ar    1  UNL1        0.0385
      3 C         138.2640  139.1098  166.7809 C.ar    1  UNL1        0.0033
      4 C         139.5160  139.8975  166.5319 C.ar    1  UNL1        0.0048
      5 C         140.2286  140.5547  167.6765 C.ar    1  UNL1        0.0567
      6 C         139.6893  140.4243  169.0701 C.ar    1  UNL1        0.1209
      7 N         140.4020  141.0816  170.2147 N.ar    1  UNL1       -0.2108
      8 C         141.6540  141.8693  169.9657 C.ar    1  UNL1        0.2163
      9 N         142.3667  142.5266  171.1103 N.pl3   1  UNL1       -0.3274
     10 N         142.1933  141.9997  168.5721 N.ar    1  UNL1       -0.1813
     11 N         143.3972  142.7069  168.0239 N.ar    1  UNL1       -0.1451
     12 C         143.4286  142.4867  166.5405 C.ar    1  UNL1        0.1769
     13 N         142.2441  141.6434  166.1719 N.ar    1  UNL1       -0.2086
     14 C         141.4807  141.3424  167.4275 C.ar    1  UNL1        0.1695
     15 H         142.0127  142.4410  172.0250 H       1  UNL1        0.1452
     16 H         143.1884  143.0436  170.9469 H       1  UNL1        0.1452
     17 C         136.5805  138.8284  170.9466 C.3     1  UNL1        0.2525
     18 O         137.8979  139.5063  170.7126 O.3     1  UNL1       -0.4699
     19 C         144.4629  143.0167  165.5921 C.3     1  UNL1        0.1408
     20 N         144.3873  142.6763  164.1332 N.3     1  UNL1       -0.2644
     21 C         144.7856  141.3095  163.6604 C.3     1  UNL1        0.0942
     22 C         144.7100  140.9690  162.2015 C.3     1  UNL1        0.1100
     23 N         144.2363  141.9953  161.2154 N.pl3   1  UNL1       -0.2854
     24 C         143.8381  143.3619  161.6882 C.3     1  UNL1        0.1085
     25 C         143.9136  143.7024  163.1471 C.3     1  UNL1        0.0778
     26 C         143.5154  145.0691  163.6198 C.3     1  UNL1        0.0192
     27 C         144.1607  141.6548  159.7565 C.ar    1  UNL1        0.1629
     28 N         143.9080  140.2929  159.1809 N.ar    1  UNL1       -0.2229
     29 C         143.9157  140.4128  157.6857 C.ar    1  UNL1        0.1030
     30 C         144.1733  141.8488  157.3372 C.ar    1  UNL1        0.0293
     31 C         144.2635  142.4175  155.9521 C.3     1  UNL1        0.0399
     32 S         144.3247  142.6165  158.6170 S.2     1  UNL1       -0.0558
@<TRIPOS>BOND
     1    17    18    1
     2    18     1    1
     3     1     2   ar
     4     2     3   ar
     5     3     4   ar
     6     4     5   ar
     7     5     6   ar
     8     6     7   ar
     9     7     8   ar
    10     8     9    1
    11     8    10   ar
    12    10    11   ar
    13    11    12   ar
    14    12    19    1
    15    19    20    1
    16    20    21    1
    17    21    22    1
    18    22    23    1
    19    23    27    1
    20    27    28   ar
    21    28    29   ar
    22    29    30   ar
    23    30    31    1
    24    30    32   ar
    25    23    24    1
    26    24    25    1
    27    25    26    1
    28    12    13   ar
    29    13    14   ar
    30     6     1   ar
    31    14    10   ar
    32    14     5   ar
    33    25    20    1
    34    32    27   ar
    35     9    15    1
    36     9    16    1
@<TRIPOS>MOLECULE
*****
 32 36 0 0 0
SMALL
GASTEIGER

@<TRIPOS>ATOM
      1 C         141.1852  141.5237  168.9332 C.ar    1  UNL1        0.1564
      2 C         142.4472  142.2607  168.5957 C.ar    1  UNL1        0.0385
      3 C         143.0502  142.1286  167.2286 C.ar    1  UNL1        0.0033
      4 C         142.3911  141.2595  166.1990 C.ar    1  UNL1        0.0048
      5 C         141.1290  140.5224  166.5365 C.ar    1  UNL1        0.0567
      6 C         140.5261  140.6545  167.9036 C.ar    1  UNL1        0.1209
      7 N         139.2640  139.9174  168.2411 N.ar    1  UNL1       -0.2108
      8 C         138.6049  139.0483  167.2115 C.ar    1  UNL1        0.2163
      9 N         137.3428  138.3111  167.5489 N.pl3   1  UNL1       -0.3274
     10 N         139.2078  138.9162  165.8443 N.ar    1  UNL1       -0.1813
     11 N         138.7870  138.1386  164.6326 N.ar    1  UNL1       -0.1451
     12 C         139.7890  138.3951  163.5462 C.ar    1  UNL1        0.1769
     13 N         140.8291  139.3312  164.0866 N.ar    1  UNL1       -0.2086
     14 C         140.4699  139.6532  165.5068 C.ar    1  UNL1        0.1695
     15 H         136.9470  138.3978  168.4462 H       1  UNL1        0.1452
     16 H         136.9102  137.7407  166.8732 H       1  UNL1        0.1452
     17 C         139.7538  142.8587  170.6416 C.3     1  UNL1        0.2525
     18 O         140.5822  141.6558  170.3003 O.3     1  UNL1       -0.4699
     19 C         139.7566  137.8170  162.1624 C.3     1  UNL1        0.1408
     20 N         140.7133  138.3140  161.1195 N.3     1  UNL1       -0.2644
     21 C         142.1748  137.9945  161.2292 C.3     1  UNL1        0.0942
     22 C         143.1315  138.4914  160.1863 C.3     1  UNL1        0.1100
     23 N         142.6267  139.3078  159.0335 N.pl3   1  UNL1       -0.2854
     24 C         141.1652  139.6273  158.9238 C.3     1  UNL1        0.1085
     25 C         140.2085  139.1303  159.9668 C.3     1  UNL1        0.0778
     26 C         138.7471  139.4497  159.8571 C.3     1  UNL1        0.0192
     27 C         143.5834  139.8048  157.9906 C.ar    1  UNL1        0.1629
     28 N         143.8575  139.1574  156.6655 N.ar    1  UNL1       -0.2229
     29 C         144.8775  139.9888  155.9455 C.ar    1  UNL1        0.1030
     30 C         145.2337  141.1501  156.8256 C.ar    1  UNL1        0.0293
     31 C         146.2171  142.2347  156.4991 C.3     1  UNL1        0.0399
     32 S         144.4339  141.0364  158.0895 S.2     1  UNL1       -0.0558
@<TRIPOS>BOND
     1    17    18    1
     2    18     1    1
     3     1     2   ar
     4     2     3   ar
     5     3     4   ar
     6     4     5   ar
     7     5     6   ar
     8     6     7   ar
     9     7     8   ar
    10     8     9    1
    11     8    10   ar
    12    10    11   ar
    13    11    12   ar
    14    12    19    1
    15    19    20    1
    16    20    21    1
    17    21    22    1
    18    22    23    1
    19    23    27    1
    20    27    28   ar
    21    28    29   ar
    22    29    30   ar
    23    30    31    1
    24    30    32   ar
    25    23    24    1
    26    24    25    1
    27    25    26    1
    28    12    13   ar
    29    13    14   ar
    30     6     1   ar
    31    14    10   ar
    32    14     5   ar
    33    25    20    1
    34    32    27   ar
    35     9    15    1
    36     9    16    1
@<TRIPOS>MOLECULE
*****
 32 36 0 0 0
SMALL
GASTEIGER

@<TRIPOS>ATOM
      1 C         140.9163  140.5310  169.0787 C.ar    1  UNL1        0.1564
      2 C         142.1635  140.8378  169.8535 C.ar    1  UNL1        0.0385
      3 C         143.2215  141.7164  169.2545 C.ar    1  UNL1        0.0033
      4 C         143.0323  142.2882  167.8808 C.ar    1  UNL1        0.0048
      5 C         141.7851  141.9814  167.1060 C.ar    1  UNL1        0.0567
      6 C         140.7271  141.1028  167.7049 C.ar    1  UNL1        0.1209
      7 N         139.4798  140.7961  166.9301 N.ar    1  UNL1       -0.2108
      8 C         139.2906  141.3679  165.5564 C.ar    1  UNL1        0.2163
      9 N         138.0434  141.0612  164.7815 N.pl3   1  UNL1       -0.3274
     10 N         140.3486  142.2465  164.9574 N.ar    1  UNL1       -0.1813
     11 N         140.4403  142.9481  163.6348 N.ar    1  UNL1       -0.1451
     12 C         141.7441  143.6885  163.5922 C.ar    1  UNL1        0.1769
     13 N         142.4583  143.4445  164.8885 N.ar    1  UNL1       -0.2086
     14 C         141.5958  142.5533  165.7322 C.ar    1  UNL1        0.1695
     15 H         137.3490  140.4845  165.1746 H       1  UNL1        0.1452
     16 H         137.9192  141.4365  163.8799 H       1  UNL1        0.1452
     17 C         138.6151  140.2621  170.2543 C.3     1  UNL1        0.2525
     18 O         139.8583  139.6524  169.6776 O.3     1  UNL1       -0.4699
     19 C         142.2457  144.5260  162.4533 C.3     1  UNL1        0.1408
     20 N         142.8976  143.8715  161.2714 N.3     1  UNL1       -0.2644
     21 C         144.1849  143.1213  161.4450 C.3     1  UNL1        0.0942
     22 C         144.8368  142.4669  160.2631 C.3     1  UNL1        0.1100
     23 N         144.2013  142.5626  158.9077 N.pl3   1  UNL1       -0.2854
     24 C         142.9140  143.3128  158.7342 C.3     1  UNL1        0.1085
     25 C         142.2622  143.9672  159.9160 C.3     1  UNL1        0.0778
     26 C         140.9749  144.7174  159.7425 C.3     1  UNL1        0.0192
     27 C         144.8531  141.9082  157.7258 C.ar    1  UNL1        0.1629
     28 N         146.1139  142.3613  157.0512 N.ar    1  UNL1       -0.2229
     29 C         146.3987  141.4189  155.9195 C.ar    1  UNL1        0.1030
     30 C         145.3138  140.3832  155.8947 C.ar    1  UNL1        0.0293
     31 C         145.2035  139.2450  154.9240 C.3     1  UNL1        0.0399
     32 S         144.3586  140.6856  157.0110 S.2     1  UNL1       -0.0558
@<TRIPOS>BOND
     1    17    18    1
     2    18     1    1
     3     1     2   ar
     4     2     3   ar
     5     3     4   ar
     6     4     5   ar
     7     5     6   ar
     8     6     7   ar
     9     7     8   ar
    10     8     9    1
    11     8    10   ar
    12    10    11   ar
    13    11    12   ar
    14    12    19    1
    15    19    20    1
    16    20    21    1
    17    21    22    1
    18    22    23    1
    19    23    27    1
    20    27    28   ar
    21    28    29   ar
    22    29    30   ar
    23    30    31    1
    24    30    32   ar
    25    23    24    1
    26    24    25    1
    27    25    26    1
    28    12    13   ar
    29    13    14   ar
    30     6     1   ar
    31    14    10   ar
    32    14     5   ar
    33    25    20    1
    34    32    27   ar
    35     9    15    1
    36     9    16    1
@<TRIPOS>MOLECULE
*****
 32 36 0 0 0
SMALL
GASTEIGER

@<TRIPOS>ATOM
      1 C         140.8985  142.3140  169.5328 C.ar    1  UNL1        0.1564
      2 C         139.7478  141.7147  170.2855 C.ar    1  UNL1        0.0385
      3 C         139.0545  140.4968  169.7507 C.ar    1  UNL1        0.0033
      4 C         139.5120  139.8781  168.4631 C.ar    1  UNL1        0.0048
      5 C         140.6627  140.4774  167.7103 C.ar    1  UNL1        0.0567
      6 C         141.3559  141.6953  168.2452 C.ar    1  UNL1        0.1209
      7 N         142.5067  142.2945  167.4923 N.ar    1  UNL1       -0.2108
      8 C         142.9641  141.6759  166.2047 C.ar    1  UNL1        0.2163
      9 N         144.1149  142.2751  165.4518 N.pl3   1  UNL1       -0.3274
     10 N         142.2708  140.4580  165.6699 N.ar    1  UNL1       -0.1813
     11 N         142.4969  139.6347  164.4366 N.ar    1  UNL1       -0.1451
     12 C         141.4859  138.5266  164.4271 C.ar    1  UNL1        0.1769
     13 N         140.6350  138.6651  165.6547 N.ar    1  UNL1       -0.2086
     14 C         141.1201  139.8587  166.4227 C.ar    1  UNL1        0.1695
     15 H         144.5699  143.0745  165.8028 H       1  UNL1        0.1452
     16 H         144.4151  141.8691  164.6067 H       1  UNL1        0.1452
     17 C         142.9334  143.4028  170.7258 C.3     1  UNL1        0.2525
     18 O         141.5918  143.5319  170.0676 O.3     1  UNL1       -0.4699
     19 C         141.3497  137.4662  163.3749 C.3     1  UNL1        0.1408
     20 N         140.9311  137.8395  161.9837 N.3     1  UNL1       -0.2644
     21 C         139.4758  137.9926  161.6541 C.3     1  UNL1        0.0942
     22 C         139.0572  138.3659  160.2629 C.3     1  UNL1        0.1100
     23 N         140.0939  138.5861  159.2013 N.pl3   1  UNL1       -0.2854
     24 C         141.5491  138.4331  159.5310 C.3     1  UNL1        0.1085
     25 C         141.9678  138.0598  160.9222 C.3     1  UNL1        0.0778
     26 C         143.4230  137.9067  161.2519 C.3     1  UNL1        0.0192
     27 C         139.6753  138.9594  157.8102 C.ar    1  UNL1        0.1629
     28 N         138.5235  139.8480  157.4445 N.ar    1  UNL1       -0.2229
     29 C         138.4713  139.9475  155.9487 C.ar    1  UNL1        0.1030
     30 C         139.5909  139.1203  155.3899 C.ar    1  UNL1        0.0293
     31 C         139.9103  138.9361  153.9359 C.3     1  UNL1        0.0399
     32 S         140.3350  138.5096  156.5403 S.2     1  UNL1       -0.0558
@<TRIPOS>BOND
     1    17    18    1
     2    18     1    1
     3     1     2   ar
     4     2     3   ar
     5     3     4   ar
     6     4     5   ar
     7     5     6   ar
     8     6     7   ar
     9     7     8   ar
    10     8     9    1
    11     8    10   ar
    12    10    11   ar
    13    11    12   ar
    14    12    19    1
    15    19    20    1
    16    20    21    1
    17    21    22    1
    18    22    23    1
    19    23    27    1
    20    27    28   ar
    21    28    29   ar
    22    29    30   ar
    23    30    31    1
    24    30    32   ar
    25    23    24    1
    26    24    25    1
    27    25    26    1
    28    12    13   ar
    29    13    14   ar
    30     6     1   ar
    31    14    10   ar
    32    14     5   ar
    33    25    20    1
    34    32    27   ar
    35     9    15    1
    36     9    16    1
@<TRIPOS>MOLECULE
*****
 32 36 0 0 0
SMALL
GASTEIGER

@<TRIPOS>ATOM
      1 C         143.9802  131.5763  155.3089 C.ar    1  UNL1        0.1564
      2 C         144.8846  131.1437  156.4246 C.ar    1  UNL1        0.0385
      3 C         145.1153  132.0500  157.5973 C.ar    1  UNL1        0.0033
      4 C         144.4416  133.3890  157.6543 C.ar    1  UNL1        0.0048
      5 C         143.5373  133.8216  156.5386 C.ar    1  UNL1        0.0567
      6 C         143.3066  132.9152  155.3659 C.ar    1  UNL1        0.1209
      7 N         142.4022  133.3479  154.2501 N.ar    1  UNL1       -0.2108
      8 C         141.7285  134.6869  154.3070 C.ar    1  UNL1        0.2163
      9 N         140.8241  135.1195  153.1913 N.pl3   1  UNL1       -0.3274
     10 N         141.9592  135.5932  155.4798 N.ar    1  UNL1       -0.1813
     11 N         141.4365  136.9598  155.8102 N.ar    1  UNL1       -0.1451
     12 C         142.0178  137.3718  157.1301 C.ar    1  UNL1        0.1769
     13 N         142.8998  136.2598  157.6155 N.ar    1  UNL1       -0.2086
     14 C         142.8636  135.1606  156.5955 C.ar    1  UNL1        0.1695
     15 H         140.6726  134.5247  152.4216 H       1  UNL1        0.1452
     16 H         140.3819  135.9984  153.2287 H       1  UNL1        0.1452
     17 C         144.5473  129.4075  153.9956 C.3     1  UNL1        0.2525
     18 O         143.7495  130.6699  154.1362 O.3     1  UNL1       -0.4699
     19 C         141.7621  138.6682  157.8402 C.3     1  UNL1        0.1408
     20 N         141.2584  138.6628  159.2530 N.3     1  UNL1       -0.2644
     21 C         139.8091  138.3942  159.5316 C.3     1  UNL1        0.0942
     22 C         139.3054  138.3888  160.9445 C.3     1  UNL1        0.1100
     23 N         140.2510  138.6520  162.0788 N.pl3   1  UNL1       -0.2854
     24 C         141.7002  138.9206  161.8002 C.3     1  UNL1        0.1085
     25 C         142.2039  138.9260  160.3874 C.3     1  UNL1        0.0778
     26 C         143.6531  139.1946  160.1088 C.3     1  UNL1        0.0192
     27 C         139.7473  138.6467  163.4917 C.ar    1  UNL1        0.1629
     28 N         138.7930  137.6523  164.0838 N.ar    1  UNL1       -0.2229
     29 C         138.5654  138.0258  165.5186 C.ar    1  UNL1        0.1030
     30 C         139.3791  139.2510  165.8134 C.ar    1  UNL1        0.0293
     31 C         139.4499  139.9667  167.1296 C.3     1  UNL1        0.0399
     32 S         140.1096  139.6347  164.5607 S.2     1  UNL1       -0.0558
@<TRIPOS>BOND
     1    17    18    1
     2    18     1    1
     3     1     2   ar
     4     2     3   ar
     5     3     4   ar
     6     4     5   ar
     7     5     6   ar
     8     6     7   ar
     9     7     8   ar
    10     8     9    1
    11     8    10   ar
    12    10    11   ar
    13    11    12   ar
    14    12    19    1
    15    19    20    1
    16    20    21    1
    17    21    22    1
    18    22    23    1
    19    23    27    1
    20    27    28   ar
    21    28    29   ar
    22    29    30   ar
    23    30    31    1
    24    30    32   ar
    25    23    24    1
    26    24    25    1
    27    25    26    1
    28    12    13   ar
    29    13    14   ar
    30     6     1   ar
    31    14    10   ar
    32    14     5   ar
    33    25    20    1
    34    32    27   ar
    35     9    15    1
    36     9    16    1
@<TRIPOS>MOLECULE
*****
 32 36 0 0 0
SMALL
GASTEIGER

@<TRIPOS>ATOM
      1 C         140.7128  142.2523  169.3911 C.ar    1  UNL1        0.1564
      2 C         139.6730  141.6078  170.2592 C.ar    1  UNL1        0.0385
      3 C         138.9241  140.4055  169.7656 C.ar    1  UNL1        0.0033
      4 C         139.2151  139.8476  168.4040 C.ar    1  UNL1        0.0048
      5 C         140.2548  140.4920  167.5359 C.ar    1  UNL1        0.0567
      6 C         141.0037  141.6943  168.0295 C.ar    1  UNL1        0.1209
      7 N         142.0435  142.3387  167.1614 N.ar    1  UNL1       -0.2108
      8 C         142.3344  141.7808  165.7998 C.ar    1  UNL1        0.2163
      9 N         143.3742  142.4252  164.9316 N.pl3   1  UNL1       -0.3274
     10 N         141.5856  140.5785  165.3062 N.ar    1  UNL1       -0.1813
     11 N         141.6555  139.8110  164.0193 N.ar    1  UNL1       -0.1451
     12 C         140.6589  138.6924  164.0920 C.ar    1  UNL1        0.1769
     13 N         139.9731  138.7684  165.4239 N.ar    1  UNL1       -0.2086
     14 C         140.5458  139.9341  166.1743 C.ar    1  UNL1        0.1695
     15 H         143.8657  143.2144  165.2555 H       1  UNL1        0.1452
     16 H         143.5652  142.0590  164.0379 H       1  UNL1        0.1452
     17 C         142.7787  143.2838  170.5819 C.3     1  UNL1        0.2525
     18 O         141.4616  143.4546  169.8847 O.3     1  UNL1       -0.4699
     19 C         140.3945  137.6760  163.0209 C.3     1  UNL1        0.1408
     20 N         140.9414  137.8826  161.6395 N.3     1  UNL1       -0.2644
     21 C         142.3759  137.5579  161.3446 C.3     1  UNL1        0.0942
     22 C         142.9229  137.7645  159.9632 C.3     1  UNL1        0.1100
     23 N         142.0354  138.2958  158.8768 N.pl3   1  UNL1       -0.2854
     24 C         140.6010  138.6204  159.1718 C.3     1  UNL1        0.1085
     25 C         140.0540  138.4138  160.5532 C.3     1  UNL1        0.0778
     26 C         138.6196  138.7385  160.8482 C.3     1  UNL1        0.0192
     27 C         142.5824  138.5024  157.4955 C.ar    1  UNL1        0.1629
     28 N         143.8390  139.2434  157.1465 N.ar    1  UNL1       -0.2229
     29 C         144.0020  139.2032  155.6559 C.ar    1  UNL1        0.1030
     30 C         142.8461  138.4374  155.0836 C.ar    1  UNL1        0.0293
     31 C         142.6092  138.1544  153.6298 C.3     1  UNL1        0.0399
     32 S         141.9687  138.0043  156.2205 S.2     1  UNL1       -0.0558
@<TRIPOS>BOND
     1    17    18    1
     2    18     1    1
     3     1     2   ar
     4     2     3   ar
     5     3     4   ar
     6     4     5   ar
     7     5     6   ar
     8     6     7   ar
     9     7     8   ar
    10     8     9    1
    11     8    10   ar
    12    10    11   ar
    13    11    12   ar
    14    12    19    1
    15    19    20    1
    16    20    21    1
    17    21    22    1
    18    22    23    1
    19    23    27    1
    20    27    28   ar
    21    28    29   ar
    22    29    30   ar
    23    30    31    1
    24    30    32   ar
    25    23    24    1
    26    24    25    1
    27    25    26    1
    28    12    13   ar
    29    13    14   ar
    30     6     1   ar
    31    14    10   ar
    32    14     5   ar
    33    25    20    1
    34    32    27   ar
    35     9    15    1
    36     9    16    1
@<TRIPOS>MOLECULE
*****
 32 36 0 0 0
SMALL
GASTEIGER

@<TRIPOS>ATOM
      1 C         140.1796  145.7483  156.4501 C.ar    1  UNL1        0.1564
      2 C         140.9506  145.2847  155.2499 C.ar    1  UNL1        0.0385
      3 C         142.1773  144.4398  155.4270 C.ar    1  UNL1        0.0033
      4 C         142.6330  144.0584  156.8042 C.ar    1  UNL1        0.0048
      5 C         141.8619  144.5220  158.0044 C.ar    1  UNL1        0.0567
      6 C         140.6353  145.3669  157.8274 C.ar    1  UNL1        0.1209
      7 N         139.8642  145.8305  159.0277 N.ar    1  UNL1       -0.2108
      8 C         140.3199  145.4492  160.4049 C.ar    1  UNL1        0.2163
      9 N         139.5488  145.9128  161.6053 N.pl3   1  UNL1       -0.3274
     10 N         141.5465  144.6043  160.5820 N.ar    1  UNL1       -0.1813
     11 N         142.2320  144.0742  161.8064 N.ar    1  UNL1       -0.1451
     12 C         143.4267  143.2830  161.3628 C.ar    1  UNL1        0.1769
     13 N         143.4796  143.3241  159.8643 N.ar    1  UNL1       -0.2086
     14 C         142.3176  144.1407  159.3818 C.ar    1  UNL1        0.1695
     15 H         138.7437  146.4673  161.4891 H       1  UNL1        0.1452
     16 H         139.8479  145.6625  162.5092 H       1  UNL1        0.1452
     17 C         139.0422  147.9019  155.5456 C.3     1  UNL1        0.2525
     18 O         138.9529  146.5932  156.2730 O.3     1  UNL1       -0.4699
     19 C         144.3981  142.5750  162.2603 C.3     1  UNL1        0.1408
     20 N         143.9533  142.0797  163.6044 N.3     1  UNL1       -0.2644
     21 C         143.8283  143.0367  164.7527 C.3     1  UNL1        0.0942
     22 C         143.3836  142.5414  166.0969 C.3     1  UNL1        0.1100
     23 N         143.0638  141.0890  166.2928 N.pl3   1  UNL1       -0.2854
     24 C         143.1888  140.1320  165.1446 C.3     1  UNL1        0.1085
     25 C         143.6336  140.6273  163.8004 C.3     1  UNL1        0.0778
     26 C         143.7586  139.6703  162.6522 C.3     1  UNL1        0.0192
     27 C         142.6191  140.5936  167.6370 C.ar    1  UNL1        0.1629
     28 N         142.9646  139.2673  168.2464 N.ar    1  UNL1       -0.2229
     29 C         142.3098  139.1916  169.5939 C.ar    1  UNL1        0.1030
     30 C         141.5596  140.4712  169.8172 C.ar    1  UNL1        0.0293
     31 C         140.7588  140.8226  171.0359 C.3     1  UNL1        0.0399
     32 S         141.7507  141.3377  168.6078 S.2     1  UNL1       -0.0558
@<TRIPOS>BOND
     1    17    18    1
     2    18     1    1
     3     1     2   ar
     4     2     3   ar
     5     3     4   ar
     6     4     5   ar
     7     5     6   ar
     8     6     7   ar
     9     7     8   ar
    10     8     9    1
    11     8    10   ar
    12    10    11   ar
    13    11    12   ar
    14    12    19    1
    15    19    20    1
    16    20    21    1
    17    21    22    1
    18    22    23    1
    19    23    27    1
    20    27    28   ar
    21    28    29   ar
    22    29    30   ar
    23    30    31    1
    24    30    32   ar
    25    23    24    1
    26    24    25    1
    27    25    26    1
    28    12    13   ar
    29    13    14   ar
    30     6     1   ar
    31    14    10   ar
    32    14     5   ar
    33    25    20    1
    34    32    27   ar
    35     9    15    1
    36     9    16    1
