@<TRIPOS>MOLECULE
*****
 30 33 0 0 0
SMALL
GASTEIGER

@<TRIPOS>ATOM
      1 C         140.7950  145.1385  160.2284 C.ar    1  UNL1        0.1385
      2 C         140.0447  146.0175  161.1847 C.ar    1  UNL1        0.0374
      3 C         139.1019  145.4094  162.1804 C.ar    1  UNL1        0.0090
      4 C         138.9093  143.9222  162.2196 C.ar    1  UNL1        0.0231
      5 C         139.6595  143.0434  161.2633 C.ar    1  UNL1        0.0064
      6 C         140.6024  143.6515  160.2677 C.ar    1  UNL1        0.0348
      7 C         139.6148  141.5496  161.1341 C.3     1  UNL1        0.1207
      8 N         138.8087  140.5658  161.9294 N.am    1  UNL1       -0.2745
      9 C         138.9866  139.1244  161.5542 C.2     1  UNL1        0.2273
     10 O         139.9244  138.7483  160.4457 O.2     1  UNL1       -0.2748
     11 C         137.8484  140.8329  163.0502 C.3     1  UNL1        0.1057
     12 C         137.4568  142.1496  163.6527 C.3     1  UNL1        0.0836
     13 S         137.9290  143.5245  163.2830 S.3     1  UNL1       -0.1121
     14 C         141.9029  145.1234  157.8785 C.3     1  UNL1        0.2525
     15 O         141.7378  145.7467  159.2328 O.3     1  UNL1       -0.4714
     16 C         138.2265  138.0593  162.2875 C.3     1  UNL1        0.1026
     17 C         138.8787  137.3127  163.4133 C.3     1  UNL1        0.0817
     18 N         139.6942  138.0533  164.4314 N.3     1  UNL1       -0.2722
     19 C         139.0122  138.8038  165.5367 C.3     1  UNL1        0.0721
     20 C         139.8277  139.5444  166.5547 C.3     1  UNL1        0.0177
     21 C         141.3252  139.5344  166.4675 C.3     1  UNL1        0.0071
     22 C         142.0071  138.7838  165.3623 C.3     1  UNL1        0.0177
     23 C         141.1916  138.0433  164.3442 C.3     1  UNL1        0.0721
     24 C         142.1407  140.2749  167.4856 C.3     1  UNL1        0.0264
     25 C         141.4599  141.1175  168.5232 C.ar    1  UNL1       -0.0222
     26 C         141.1433  140.5382  169.8701 C.ar    1  UNL1       -0.0043
     27 C         140.4624  141.3808  170.9077 C.ar    1  UNL1       -0.0003
     28 C         140.0981  142.8026  170.5983 C.ar    1  UNL1       -0.0000
     29 C         140.4147  143.3818  169.2514 C.ar    1  UNL1       -0.0003
     30 C         141.0955  142.5393  168.2138 C.ar    1  UNL1       -0.0043
@<TRIPOS>BOND
     1    14    15    1
     2    15     1    1
     3     1     2   ar
     4     2     3   ar
     5     3     4   ar
     6     4     5   ar
     7     5     6   ar
     8     5     7    1
     9     7     8    1
    10     8     9   am
    11     9    10    2
    12     9    16    1
    13    16    17    1
    14    17    18    1
    15    18    19    1
    16    19    20    1
    17    20    21    1
    18    21    24    1
    19    24    25    1
    20    25    26   ar
    21    26    27   ar
    22    27    28   ar
    23    28    29   ar
    24    29    30   ar
    25    21    22    1
    26    22    23    1
    27     8    11    1
    28    11    12    1
    29    12    13    1
    30     6     1   ar
    31    23    18    1
    32    13     4    1
    33    30    25   ar
@<TRIPOS>MOLECULE
*****
 30 33 0 0 0
SMALL
GASTEIGER

@<TRIPOS>ATOM
      1 C         141.0516  142.5953  167.5219 C.ar    1  UNL1        0.1385
      2 C         142.4938  142.1831  167.5170 C.ar    1  UNL1        0.0374
      3 C         143.3284  142.3885  166.2876 C.ar    1  UNL1        0.0090
      4 C         142.7206  143.0061  165.0631 C.ar    1  UNL1        0.0231
      5 C         141.2785  143.4182  165.0681 C.ar    1  UNL1        0.0064
      6 C         140.4439  143.2129  166.2974 C.ar    1  UNL1        0.0348
      7 C         140.4815  144.0467  163.9635 C.3     1  UNL1        0.1207
      8 N         140.9302  144.4182  162.5811 N.am    1  UNL1       -0.2745
      9 C         139.8842  145.0367  161.7017 C.2     1  UNL1        0.2273
     10 O         138.4938  145.2468  162.2239 O.2     1  UNL1       -0.2748
     11 C         142.2864  144.2530  161.9621 C.3     1  UNL1        0.1057
     12 C         143.5290  143.6755  162.5723 C.3     1  UNL1        0.0836
     13 S         143.7223  143.1206  163.9524 S.3     1  UNL1       -0.1121
     14 C         140.3238  143.3497  169.8991 C.3     1  UNL1        0.2525
     15 O         140.2171  142.3899  168.7513 O.3     1  UNL1       -0.4714
     16 C         140.2286  145.4451  160.3001 C.3     1  UNL1        0.1026
     17 C         140.1294  144.4492  159.1828 C.3     1  UNL1        0.0817
     18 N         140.0129  142.9857  159.4907 N.3     1  UNL1       -0.2722
     19 C         138.6935  142.4111  159.9140 C.3     1  UNL1        0.0721
     20 C         138.5771  140.9477  160.2218 C.3     1  UNL1        0.0177
     21 C         139.7799  140.0589  160.1063 C.3     1  UNL1        0.0071
     22 C         141.0992  140.6336  159.6830 C.3     1  UNL1        0.0177
     23 C         141.2157  142.0970  159.3752 C.3     1  UNL1        0.0721
     24 C         139.6634  138.5955  160.4142 C.3     1  UNL1        0.0264
     25 C         139.8285  138.1101  161.8239 C.ar    1  UNL1       -0.0222
     26 C         141.1675  137.6293  162.2995 C.ar    1  UNL1       -0.0043
     27 C         141.3326  137.1440  163.7093 C.ar    1  UNL1       -0.0003
     28 C         140.1588  137.1393  164.6432 C.ar    1  UNL1       -0.0000
     29 C         138.8200  137.6201  164.1674 C.ar    1  UNL1       -0.0003
     30 C         138.6548  138.1054  162.7578 C.ar    1  UNL1       -0.0043
@<TRIPOS>BOND
     1    14    15    1
     2    15     1    1
     3     1     2   ar
     4     2     3   ar
     5     3     4   ar
     6     4     5   ar
     7     5     6   ar
     8     5     7    1
     9     7     8    1
    10     8     9   am
    11     9    10    2
    12     9    16    1
    13    16    17    1
    14    17    18    1
    15    18    19    1
    16    19    20    1
    17    20    21    1
    18    21    24    1
    19    24    25    1
    20    25    26   ar
    21    26    27   ar
    22    27    28   ar
    23    28    29   ar
    24    29    30   ar
    25    21    22    1
    26    22    23    1
    27     8    11    1
    28    11    12    1
    29    12    13    1
    30     6     1   ar
    31    23    18    1
    32    13     4    1
    33    30    25   ar
@<TRIPOS>MOLECULE
*****
 30 33 0 0 0
SMALL
GASTEIGER

@<TRIPOS>ATOM
      1 C         139.9966  139.4331  159.1056 C.ar    1  UNL1        0.1385
      2 C         139.5215  140.8129  158.7585 C.ar    1  UNL1        0.0374
      3 C         138.8606  141.6633  159.8026 C.ar    1  UNL1        0.0090
      4 C         138.6748  141.1338  161.1938 C.ar    1  UNL1        0.0231
      5 C         139.1500  139.7542  161.5408 C.ar    1  UNL1        0.0064
      6 C         139.8109  138.9037  160.4968 C.ar    1  UNL1        0.0348
      7 C         139.0641  139.0387  162.8564 C.3     1  UNL1        0.1207
      8 N         138.4818  139.5265  164.1500 N.am    1  UNL1       -0.2745
      9 C         138.5486  138.5632  165.2979 C.2     1  UNL1        0.2273
     10 O         139.1694  137.2112  165.1073 O.2     1  UNL1       -0.2748
     11 C         137.8417  140.8499  164.4472 C.3     1  UNL1        0.1057
     12 C         137.6256  142.0127  163.5245 C.3     1  UNL1        0.0836
     13 S         137.9964  142.1391  162.0766 S.3     1  UNL1       -0.1121
     14 C         139.8264  137.7073  157.1711 C.3     1  UNL1        0.2525
     15 O         140.6575  138.5828  158.0615 O.3     1  UNL1       -0.4714
     16 C         137.9944  138.9521  166.6364 C.3     1  UNL1        0.1026
     17 C         138.9130  139.4504  167.7125 C.3     1  UNL1        0.0817
     18 N         140.1170  140.2689  167.3512 N.3     1  UNL1       -0.2722
     19 C         140.0341  141.7667  167.3544 C.3     1  UNL1        0.0721
     20 C         141.2380  142.5852  166.9932 C.3     1  UNL1        0.0177
     21 C         142.5249  141.9059  166.6287 C.3     1  UNL1        0.0071
     22 C         142.6077  140.4083  166.6255 C.3     1  UNL1        0.0177
     23 C         141.4037  139.5898  166.9868 C.3     1  UNL1        0.0721
     24 C         143.7288  142.7244  166.2674 C.3     1  UNL1        0.0264
     25 C         144.1261  142.8800  164.8293 C.ar    1  UNL1       -0.0222
     26 C         144.9971  141.8481  164.1761 C.ar    1  UNL1       -0.0043
     27 C         145.3943  142.0037  162.7380 C.ar    1  UNL1       -0.0003
     28 C         144.9205  143.1909  161.9532 C.ar    1  UNL1       -0.0000
     29 C         144.0495  144.2226  162.6065 C.ar    1  UNL1       -0.0003
     30 C         143.6522  144.0672  164.0445 C.ar    1  UNL1       -0.0043
@<TRIPOS>BOND
     1    14    15    1
     2    15     1    1
     3     1     2   ar
     4     2     3   ar
     5     3     4   ar
     6     4     5   ar
     7     5     6   ar
     8     5     7    1
     9     7     8    1
    10     8     9   am
    11     9    10    2
    12     9    16    1
    13    16    17    1
    14    17    18    1
    15    18    19    1
    16    19    20    1
    17    20    21    1
    18    21    24    1
    19    24    25    1
    20    25    26   ar
    21    26    27   ar
    22    27    28   ar
    23    28    29   ar
    24    29    30   ar
    25    21    22    1
    26    22    23    1
    27     8    11    1
    28    11    12    1
    29    12    13    1
    30     6     1   ar
    31    23    18    1
    32    13     4    1
    33    30    25   ar
@<TRIPOS>MOLECULE
*****
 30 33 0 0 0
SMALL
GASTEIGER

@<TRIPOS>ATOM
      1 C         140.2200  139.9447  168.0604 C.ar    1  UNL1        0.1385
      2 C         138.8194  139.4929  167.7702 C.ar    1  UNL1        0.0374
      3 C         138.4949  138.8559  166.4515 C.ar    1  UNL1        0.0090
      4 C         139.5710  138.6707  165.4230 C.ar    1  UNL1        0.0231
      5 C         140.9715  139.1225  165.7132 C.ar    1  UNL1        0.0064
      6 C         141.2961  139.7595  167.0318 C.ar    1  UNL1        0.0348
      7 C         142.1841  139.0331  164.8346 C.3     1  UNL1        0.1207
      8 N         142.2954  138.4698  163.4488 N.am    1  UNL1       -0.2745
      9 C         143.6610  138.5271  162.8309 C.2     1  UNL1        0.2273
     10 O         144.8062  139.1211  163.5961 O.2     1  UNL1       -0.2748
     11 C         141.2218  137.8568  162.5995 C.3     1  UNL1        0.1057
     12 C         139.7716  137.6556  162.9260 C.3     1  UNL1        0.0836
     13 S         139.0369  138.0179  164.1826 S.3     1  UNL1       -0.1121
     14 C         139.9892  141.9339  169.7156 C.3     1  UNL1        0.2525
     15 O         140.5445  140.5817  169.3791 O.3     1  UNL1       -0.4714
     16 C         143.8813  137.9904  161.4476 C.3     1  UNL1        0.1026
     17 C         143.5650  138.8415  160.2536 C.3     1  UNL1        0.0817
     18 N         142.7057  140.0612  160.4084 N.3     1  UNL1       -0.2722
     19 C         141.2856  140.0443  159.9256 C.3     1  UNL1        0.0721
     20 C         140.4263  141.2640  160.0804 C.3     1  UNL1        0.0177
     21 C         140.9872  142.5006  160.7179 C.3     1  UNL1        0.0071
     22 C         142.4072  142.5174  161.2007 C.3     1  UNL1        0.0177
     23 C         143.2665  141.2977  161.0459 C.3     1  UNL1        0.0721
     24 C         140.1279  143.7203  160.8727 C.3     1  UNL1        0.0264
     25 C         139.4683  144.0111  162.1882 C.ar    1  UNL1       -0.0222
     26 C         138.0523  143.5786  162.4290 C.ar    1  UNL1       -0.0043
     27 C         137.3927  143.8694  163.7445 C.ar    1  UNL1       -0.0003
     28 C         138.1491  144.5926  164.8191 C.ar    1  UNL1       -0.0000
     29 C         139.5651  145.0251  164.5782 C.ar    1  UNL1       -0.0003
     30 C         140.2247  144.7343  163.2628 C.ar    1  UNL1       -0.0043
@<TRIPOS>BOND
     1    14    15    1
     2    15     1    1
     3     1     2   ar
     4     2     3   ar
     5     3     4   ar
     6     4     5   ar
     7     5     6   ar
     8     5     7    1
     9     7     8    1
    10     8     9   am
    11     9    10    2
    12     9    16    1
    13    16    17    1
    14    17    18    1
    15    18    19    1
    16    19    20    1
    17    20    21    1
    18    21    24    1
    19    24    25    1
    20    25    26   ar
    21    26    27   ar
    22    27    28   ar
    23    28    29   ar
    24    29    30   ar
    25    21    22    1
    26    22    23    1
    27     8    11    1
    28    11    12    1
    29    12    13    1
    30     6     1   ar
    31    23    18    1
    32    13     4    1
    33    30    25   ar
@<TRIPOS>MOLECULE
*****
 30 33 0 0 0
SMALL
GASTEIGER

@<TRIPOS>ATOM
      1 C         142.2704  138.8281  158.1929 C.ar    1  UNL1        0.1385
      2 C         141.1318  137.9461  158.6120 C.ar    1  UNL1        0.0374
      3 C         139.9505  138.5344  159.3252 C.ar    1  UNL1        0.0090
      4 C         139.9079  140.0048  159.6191 C.ar    1  UNL1        0.0231
      5 C         141.0465  140.8867  159.2000 C.ar    1  UNL1        0.0064
      6 C         142.2277  140.2984  158.4869 C.ar    1  UNL1        0.0348
      7 C         141.2039  142.3659  159.3933 C.3     1  UNL1        0.1207
      8 N         140.2616  143.3283  160.0535 N.am    1  UNL1       -0.2745
      9 C         140.7113  144.7589  160.0883 C.2     1  UNL1        0.2273
     10 O         142.0293  145.1457  159.4857 O.2     1  UNL1       -0.2748
     11 C         138.9293  143.0493  160.6833 C.3     1  UNL1        0.1057
     12 C         138.2099  141.7390  160.8087 C.3     1  UNL1        0.0836
     13 S         138.6455  140.3840  160.3351 S.3     1  UNL1       -0.1121
     14 C         143.2599  137.5229  156.1762 C.3     1  UNL1        0.2525
     15 O         143.4516  138.2398  157.4798 O.3     1  UNL1       -0.4714
     16 C         139.8429  145.8027  160.7257 C.3     1  UNL1        0.1026
     17 C         140.0972  146.2275  162.1417 C.3     1  UNL1        0.0817
     18 N         140.1725  145.1992  163.2311 N.3     1  UNL1       -0.2722
     19 C         141.4949  144.5970  163.6038 C.3     1  UNL1        0.0721
     20 C         141.5702  143.5687  164.6933 C.3     1  UNL1        0.0177
     21 C         140.3233  143.1427  165.4101 C.3     1  UNL1        0.0071
     22 C         139.0011  143.7450  165.0374 C.3     1  UNL1        0.0177
     23 C         138.9257  144.7732  163.9479 C.3     1  UNL1        0.0721
     24 C         140.3987  142.1144  166.4996 C.3     1  UNL1        0.0264
     25 C         141.1547  142.4118  167.7606 C.ar    1  UNL1       -0.0222
     26 C         140.5002  143.1939  168.8606 C.ar    1  UNL1       -0.0043
     27 C         141.2562  143.4913  170.1217 C.ar    1  UNL1       -0.0003
     28 C         142.6666  143.0066  170.2826 C.ar    1  UNL1       -0.0000
     29 C         143.3209  142.2245  169.1825 C.ar    1  UNL1       -0.0003
     30 C         142.5650  141.9271  167.9215 C.ar    1  UNL1       -0.0043
@<TRIPOS>BOND
     1    14    15    1
     2    15     1    1
     3     1     2   ar
     4     2     3   ar
     5     3     4   ar
     6     4     5   ar
     7     5     6   ar
     8     5     7    1
     9     7     8    1
    10     8     9   am
    11     9    10    2
    12     9    16    1
    13    16    17    1
    14    17    18    1
    15    18    19    1
    16    19    20    1
    17    20    21    1
    18    21    24    1
    19    24    25    1
    20    25    26   ar
    21    26    27   ar
    22    27    28   ar
    23    28    29   ar
    24    29    30   ar
    25    21    22    1
    26    22    23    1
    27     8    11    1
    28    11    12    1
    29    12    13    1
    30     6     1   ar
    31    23    18    1
    32    13     4    1
    33    30    25   ar
@<TRIPOS>MOLECULE
*****
 30 33 0 0 0
SMALL
GASTEIGER

@<TRIPOS>ATOM
      1 C         141.0416  130.0862  154.4188 C.ar    1  UNL1        0.1385
      2 C         142.0715  129.2306  155.0950 C.ar    1  UNL1        0.0374
      3 C         143.0664  129.8521  156.0298 C.ar    1  UNL1        0.0090
      4 C         143.0314  131.3293  156.2884 C.ar    1  UNL1        0.0231
      5 C         142.0016  132.1848  155.6122 C.ar    1  UNL1        0.0064
      6 C         141.0067  131.5634  154.6774 C.ar    1  UNL1        0.0348
      7 C         141.7927  133.6656  155.7292 C.3     1  UNL1        0.1207
      8 N         142.5623  134.6565  156.5515 N.am    1  UNL1       -0.2745
      9 C         142.1026  136.0809  156.4523 C.2     1  UNL1        0.2273
     10 O         140.9415  136.4347  155.5712 O.2     1  UNL1       -0.2748
     11 C         143.7306  134.4113  157.4596 C.3     1  UNL1        0.1057
     12 C         144.4181  133.1147  157.7699 C.3     1  UNL1        0.0836
     13 S         144.1069  131.7431  157.2487 S.3     1  UNL1       -0.1121
     14 C         139.4664  130.2724  152.3611 C.3     1  UNL1        0.2525
     15 O         140.0467  129.4646  153.4840 O.3     1  UNL1       -0.4714
     16 C         142.8041  137.1515  157.2344 C.3     1  UNL1        0.1026
     17 C         142.0067  138.1801  157.9802 C.3     1  UNL1        0.0817
     18 N         141.9881  138.1721  159.4800 N.3     1  UNL1       -0.2722
     19 C         140.7011  138.4027  160.2153 C.3     1  UNL1        0.0721
     20 C         140.6825  138.3946  161.7151 C.3     1  UNL1        0.0177
     21 C         141.9509  138.1560  162.4797 C.3     1  UNL1        0.0071
     22 C         143.2377  137.9255  161.7444 C.3     1  UNL1        0.0177
     23 C         143.2564  137.9335  160.2445 C.3     1  UNL1        0.0721
     24 C         141.9323  138.1480  163.9796 C.3     1  UNL1        0.0264
     25 C         140.6786  138.5169  164.7161 C.ar    1  UNL1       -0.0222
     26 C         140.4576  139.9333  165.1577 C.ar    1  UNL1       -0.0043
     27 C         139.2040  140.3023  165.8942 C.ar    1  UNL1       -0.0003
     28 C         138.1715  139.2549  166.1891 C.ar    1  UNL1       -0.0000
     29 C         138.3927  137.8385  165.7474 C.ar    1  UNL1       -0.0003
     30 C         139.6462  137.4695  165.0109 C.ar    1  UNL1       -0.0043
@<TRIPOS>BOND
     1    14    15    1
     2    15     1    1
     3     1     2   ar
     4     2     3   ar
     5     3     4   ar
     6     4     5   ar
     7     5     6   ar
     8     5     7    1
     9     7     8    1
    10     8     9   am
    11     9    10    2
    12     9    16    1
    13    16    17    1
    14    17    18    1
    15    18    19    1
    16    19    20    1
    17    20    21    1
    18    21    24    1
    19    24    25    1
    20    25    26   ar
    21    26    27   ar
    22    27    28   ar
    23    28    29   ar
    24    29    30   ar
    25    21    22    1
    26    22    23    1
    27     8    11    1
    28    11    12    1
    29    12    13    1
    30     6     1   ar
    31    23    18    1
    32    13     4    1
    33    30    25   ar
@<TRIPOS>MOLECULE
*****
 30 33 0 0 0
SMALL
GASTEIGER

@<TRIPOS>ATOM
      1 C         143.7878  132.9255  156.0678 C.ar    1  UNL1        0.1385
      2 C         142.8248  132.5796  154.9710 C.ar    1  UNL1        0.0374
      3 C         141.8126  133.5887  154.5157 C.ar    1  UNL1        0.0090
      4 C         141.7635  134.9438  155.1572 C.ar    1  UNL1        0.0231
      5 C         142.7265  135.2896  156.2539 C.ar    1  UNL1        0.0064
      6 C         143.7387  134.2806  156.7093 C.ar    1  UNL1        0.0348
      7 C         142.8479  136.5725  157.0219 C.3     1  UNL1        0.1207
      8 N         142.0362  137.8263  156.8825 N.am    1  UNL1       -0.2745
      9 C         142.4071  138.9477  157.8071 C.2     1  UNL1        0.2273
     10 O         143.5274  138.7710  158.7888 O.2     1  UNL1       -0.2748
     11 C         140.9028  138.1067  155.9411 C.3     1  UNL1        0.1057
     12 C         140.3010  137.2028  154.9062 C.3     1  UNL1        0.0836
     13 S         140.6840  135.7952  154.5574 S.3     1  UNL1       -0.1121
     14 C         145.3152  131.9538  157.9314 C.3     1  UNL1        0.2525
     15 O         144.7999  131.9164  156.5231 O.3     1  UNL1       -0.4714
     16 C         141.6577  140.2458  157.7499 C.3     1  UNL1        0.1026
     17 C         140.6494  140.5771  158.8099 C.3     1  UNL1        0.0817
     18 N         140.7033  139.8842  160.1392 N.3     1  UNL1       -0.2722
     19 C         141.6088  140.4005  161.2179 C.3     1  UNL1        0.0721
     20 C         141.6627  139.7075  162.5471 C.3     1  UNL1        0.0177
     21 C         140.8111  138.4983  162.7977 C.3     1  UNL1        0.0071
     22 C         139.9057  137.9821  161.7189 C.3     1  UNL1        0.0177
     23 C         139.8518  138.6751  160.3897 C.3     1  UNL1        0.0721
     24 C         140.8650  137.8054  164.1269 C.3     1  UNL1        0.0264
     25 C         139.9558  138.2414  165.2375 C.ar    1  UNL1       -0.0222
     26 C         140.3285  139.4142  166.0952 C.ar    1  UNL1       -0.0043
     27 C         139.4193  139.8502  167.2057 C.ar    1  UNL1       -0.0003
     28 C         138.1374  139.1134  167.4585 C.ar    1  UNL1       -0.0000
     29 C         137.7647  137.9407  166.6007 C.ar    1  UNL1       -0.0003
     30 C         138.6739  137.5047  165.4902 C.ar    1  UNL1       -0.0043
@<TRIPOS>BOND
     1    14    15    1
     2    15     1    1
     3     1     2   ar
     4     2     3   ar
     5     3     4   ar
     6     4     5   ar
     7     5     6   ar
     8     5     7    1
     9     7     8    1
    10     8     9   am
    11     9    10    2
    12     9    16    1
    13    16    17    1
    14    17    18    1
    15    18    19    1
    16    19    20    1
    17    20    21    1
    18    21    24    1
    19    24    25    1
    20    25    26   ar
    21    26    27   ar
    22    27    28   ar
    23    28    29   ar
    24    29    30   ar
    25    21    22    1
    26    22    23    1
    27     8    11    1
    28    11    12    1
    29    12    13    1
    30     6     1   ar
    31    23    18    1
    32    13     4    1
    33    30    25   ar
@<TRIPOS>MOLECULE
*****
 30 33 0 0 0
SMALL
GASTEIGER

@<TRIPOS>ATOM
      1 C         141.1956  144.8977  155.6317 C.ar    1  UNL1        0.1385
      2 C         141.7032  145.9362  156.5878 C.ar    1  UNL1        0.0374
      3 C         141.4386  145.7957  158.0576 C.ar    1  UNL1        0.0090
      4 C         140.6664  144.6168  158.5713 C.ar    1  UNL1        0.0231
      5 C         140.1588  143.5785  157.6153 C.ar    1  UNL1        0.0064
      6 C         140.4234  143.7188  156.1455 C.ar    1  UNL1        0.0348
      7 C         139.3743  142.3354  157.9145 C.3     1  UNL1        0.1207
      8 N         138.9037  141.8238  159.2438 N.am    1  UNL1       -0.2745
      9 C         138.1336  140.5370  159.2103 C.2     1  UNL1        0.2273
     10 O         137.8798  139.8487  157.9020 O.2     1  UNL1       -0.2748
     11 C         139.1013  142.4289  160.6019 C.3     1  UNL1        0.1057
     12 C         139.8183  143.6950  160.9665 C.3     1  UNL1        0.0836
     13 S         140.5149  144.6687  160.0628 S.3     1  UNL1       -0.1121
     14 C         140.3801  144.7183  153.1716 C.3     1  UNL1        0.2525
     15 O         141.4602  145.0382  154.1620 O.3     1  UNL1       -0.4714
     16 C         137.6173  139.9386  160.4852 C.3     1  UNL1        0.1026
     17 C         138.4723  138.9852  161.2663 C.3     1  UNL1        0.0817
     18 N         138.4628  139.0252  162.7658 N.3     1  UNL1       -0.2722
     19 C         138.0609  140.2816  163.4799 C.3     1  UNL1        0.0721
     20 C         138.0514  140.3217  164.9794 C.3     1  UNL1        0.0177
     21 C         138.4439  139.1053  165.7646 C.3     1  UNL1        0.0071
     22 C         138.8458  137.8490  165.0504 C.3     1  UNL1        0.0177
     23 C         138.8553  137.8090  163.5510 C.3     1  UNL1        0.0721
     24 C         138.4345  139.1453  167.2640 C.3     1  UNL1        0.0264
     25 C         139.5003  139.9011  168.0009 C.ar    1  UNL1       -0.0222
     26 C         139.2594  140.3554  169.4100 C.ar    1  UNL1       -0.0043
     27 C         140.3253  141.1111  170.1469 C.ar    1  UNL1       -0.0003
     28 C         141.6319  141.4125  169.4747 C.ar    1  UNL1       -0.0000
     29 C         141.8726  140.9582  168.0655 C.ar    1  UNL1       -0.0003
     30 C         140.8069  140.2025  167.3287 C.ar    1  UNL1       -0.0043
@<TRIPOS>BOND
     1    14    15    1
     2    15     1    1
     3     1     2   ar
     4     2     3   ar
     5     3     4   ar
     6     4     5   ar
     7     5     6   ar
     8     5     7    1
     9     7     8    1
    10     8     9   am
    11     9    10    2
    12     9    16    1
    13    16    17    1
    14    17    18    1
    15    18    19    1
    16    19    20    1
    17    20    21    1
    18    21    24    1
    19    24    25    1
    20    25    26   ar
    21    26    27   ar
    22    27    28   ar
    23    28    29   ar
    24    29    30   ar
    25    21    22    1
    26    22    23    1
    27     8    11    1
    28    11    12    1
    29    12    13    1
    30     6     1   ar
    31    23    18    1
    32    13     4    1
    33    30    25   ar
@<TRIPOS>MOLECULE
*****
 30 33 0 0 0
SMALL
GASTEIGER

@<TRIPOS>ATOM
      1 C         144.4155  142.0712  156.5795 C.ar    1  UNL1        0.1385
      2 C         143.8348  142.6868  155.3410 C.ar    1  UNL1        0.0374
      3 C         142.7346  143.7003  155.4522 C.ar    1  UNL1        0.0090
      4 C         142.2151  144.0983  156.8020 C.ar    1  UNL1        0.0231
      5 C         142.7957  143.4827  158.0404 C.ar    1  UNL1        0.0064
      6 C         143.8959  142.4692  157.9293 C.ar    1  UNL1        0.0348
      7 C         142.4267  143.7360  159.4721 C.3     1  UNL1        0.1207
      8 N         141.3857  144.6675  160.0188 N.am    1  UNL1       -0.2745
      9 C         141.2567  144.6943  161.5131 C.2     1  UNL1        0.2273
     10 O         142.1389  143.8236  162.3577 O.2     1  UNL1       -0.2748
     11 C         140.4569  145.5756  159.2690 C.3     1  UNL1        0.1057
     12 C         140.3394  145.7767  157.7871 C.3     1  UNL1        0.0836
     13 S         141.1219  145.1192  156.6892 S.3     1  UNL1       -0.1121
     14 C         145.3336  139.8450  155.6045 C.3     1  UNL1        0.2525
     15 O         145.5157  141.0578  156.4683 O.3     1  UNL1       -0.4714
     16 C         140.2455  145.5918  162.1625 C.3     1  UNL1        0.1026
     17 C         138.9599  145.0204  162.6829 C.3     1  UNL1        0.0817
     18 N         138.9800  143.7983  163.5525 N.3     1  UNL1       -0.2722
     19 C         138.2562  142.5578  163.1196 C.3     1  UNL1        0.0721
     20 C         138.2762  141.3358  163.9892 C.3     1  UNL1        0.0177
     21 C         139.0202  141.3542  165.2917 C.3     1  UNL1        0.0071
     22 C         139.7439  142.5947  165.7245 C.3     1  UNL1        0.0177
     23 C         139.7238  143.8167  164.8549 C.3     1  UNL1        0.0721
     24 C         139.0402  140.1322  166.1612 C.3     1  UNL1        0.0264
     25 C         140.1374  139.9452  167.1669 C.ar    1  UNL1       -0.0222
     26 C         141.5232  139.5987  166.7093 C.ar    1  UNL1       -0.0043
     27 C         142.6204  139.4117  167.7150 C.ar    1  UNL1       -0.0003
     28 C         142.3317  139.5712  169.1782 C.ar    1  UNL1       -0.0000
     29 C         140.9458  139.9177  169.6358 C.ar    1  UNL1       -0.0003
     30 C         139.8487  140.1047  168.6302 C.ar    1  UNL1       -0.0043
@<TRIPOS>BOND
     1    14    15    1
     2    15     1    1
     3     1     2   ar
     4     2     3   ar
     5     3     4   ar
     6     4     5   ar
     7     5     6   ar
     8     5     7    1
     9     7     8    1
    10     8     9   am
    11     9    10    2
    12     9    16    1
    13    16    17    1
    14    17    18    1
    15    18    19    1
    16    19    20    1
    17    20    21    1
    18    21    24    1
    19    24    25    1
    20    25    26   ar
    21    26    27   ar
    22    27    28   ar
    23    28    29   ar
    24    29    30   ar
    25    21    22    1
    26    22    23    1
    27     8    11    1
    28    11    12    1
    29    12    13    1
    30     6     1   ar
    31    23    18    1
    32    13     4    1
    33    30    25   ar
