@<TRIPOS>MOLECULE
*****
 39 40 0 0 0
SMALL
GASTEIGER

@<TRIPOS>ATOM
      1 C         141.7768  138.2794  158.8587 C.2     1  UNL1        0.2302
      2 O         142.6430  137.6472  159.9076 O.2     1  UNL1       -0.2744
      3 N         140.4905  138.9448  159.2496 N.am    1  UNL1       -0.2836
      4 H         139.9219  139.3597  158.5612 H       1  UNL1        0.1549
      5 C         140.0705  138.9781  160.6892 C.ar    1  UNL1        0.0503
      6 C         140.6936  139.9668  161.6296 C.ar    1  UNL1        0.0144
      7 C         140.2737  140.0001  163.0692 C.ar    1  UNL1       -0.0002
      8 C         139.2306  139.0447  163.5685 C.ar    1  UNL1        0.0182
      9 C         138.6075  138.0560  162.6282 C.ar    1  UNL1       -0.0002
     10 C         139.0275  138.0227  161.1885 C.ar    1  UNL1        0.0144
     11 C         138.8107  139.0780  165.0081 C.3     1  UNL1        0.2827
     12 O         139.3770  137.7031  165.2051 O.3     1  UNL1       -0.3692
     13 H         139.2430  137.4270  166.1253 H       1  UNL1        0.2112
     14 C         138.3908  139.1113  166.4477 C.3     1  UNL1        0.4311
     15 F         137.9709  139.1447  167.8874 F       1  UNL1       -0.1669
     16 F         139.8291  139.1939  166.8654 F       1  UNL1       -0.1669
     17 F         137.5176  139.0653  166.3067 F       1  UNL1       -0.1669
     18 C         138.2445  140.4529  164.8111 C.3     1  UNL1        0.4311
     19 F         137.6781  141.8279  164.6141 F       1  UNL1       -0.1669
     20 F         137.5944  140.2233  164.2550 F       1  UNL1       -0.1669
     21 F         139.1160  141.3297  165.6606 F       1  UNL1       -0.1669
     22 C         142.1967  138.2460  157.4192 C.3     1  UNL1        0.1081
     23 C         145.6000  140.8299  156.0078 C.ar    1  UNL1        0.1056
     24 C         144.8791  141.1675  157.2791 C.ar    1  UNL1        0.0180
     25 C         143.7447  140.3063  157.7496 C.ar    1  UNL1       -0.0025
     26 C         143.3312  139.1073  156.9487 C.ar    1  UNL1       -0.0133
     27 C         144.0520  138.7696  155.6774 C.ar    1  UNL1       -0.0025
     28 C         145.1864  139.6309  155.2069 C.ar    1  UNL1        0.0180
     29 S         146.7344  141.6911  155.5374 S.O2    1  UNL1        0.0087
     30 O         146.8515  142.2862  156.9093 O.2     1  UNL1       -0.1686
     31 O         146.6173  141.0960  154.1655 O.2     1  UNL1       -0.1686
     32 C         149.1318  141.9196  154.5626 C.3     1  UNL1        0.0276
     33 C         147.8688  142.5524  155.0669 C.3     1  UNL1        0.1560
     34 C         141.4823  137.3515  156.4500 C.3     1  UNL1        0.0985
     35 C         141.8577  135.9026  156.3498 C.2     1  UNL1        0.2233
     36 O         143.0228  135.3739  157.1326 O.2     1  UNL1       -0.2751
     37 N         141.0678  134.9826  155.4668 N.am    1  UNL1       -0.3026
     38 C         141.4432  133.5337  155.3667 C.3     1  UNL1        0.1107
     39 H         140.3031  135.3296  154.9531 H       1  UNL1        0.1495
@<TRIPOS>BOND
     1    32    33    1
     2    33    29    1
     3    29    30    2
     4    29    31    2
     5    29    23    1
     6    23    24   ar
     7    24    25   ar
     8    25    26   ar
     9    26    22    1
    10    22    34    1
    11    34    35    1
    12    35    36    2
    13    35    37   am
    14    37    38    1
    15    22     1    1
    16     1     2    2
    17     1     3   am
    18     3     5    1
    19     5     6   ar
    20     6     7   ar
    21     7     8   ar
    22     8    11    1
    23    11    12    1
    24    11    14    1
    25    14    15    1
    26    14    16    1
    27    14    17    1
    28    11    18    1
    29    18    19    1
    30    18    20    1
    31    18    21    1
    32     8     9   ar
    33     9    10   ar
    34    26    27   ar
    35    27    28   ar
    36    28    23   ar
    37    10     5   ar
    38    37    39    1
    39     3     4    1
    40    12    13    1
@<TRIPOS>MOLECULE
*****
 39 40 0 0 0
SMALL
GASTEIGER

@<TRIPOS>ATOM
      1 C         141.7066  138.3522  158.7713 C.2     1  UNL1        0.2302
      2 O         142.5231  137.6614  159.8231 O.2     1  UNL1       -0.2744
      3 N         140.4424  139.0648  159.1510 N.am    1  UNL1       -0.2836
      4 H         139.9065  139.5181  158.4607 H       1  UNL1        0.1549
      5 C         139.9948  139.0865  160.5826 C.ar    1  UNL1        0.0503
      6 C         140.4691  140.1741  161.5003 C.ar    1  UNL1        0.0144
      7 C         140.0215  140.1958  162.9317 C.ar    1  UNL1       -0.0002
      8 C         139.0995  139.1300  163.4455 C.ar    1  UNL1        0.0182
      9 C         138.6251  138.0425  162.5278 C.ar    1  UNL1       -0.0002
     10 C         139.0728  138.0207  161.0963 C.ar    1  UNL1        0.0144
     11 C         138.6518  139.1518  164.8770 C.3     1  UNL1        0.2827
     12 O         137.8754  140.4082  164.6151 O.3     1  UNL1       -0.3692
     13 H         137.4352  140.6923  165.4314 H       1  UNL1        0.2112
     14 C         138.2042  139.1736  166.3085 C.3     1  UNL1        0.4311
     15 F         137.7566  139.1954  167.7400 F       1  UNL1       -0.1669
     16 F         139.4196  139.9719  166.6764 F       1  UNL1       -0.1669
     17 F         137.4597  138.7072  166.1959 F       1  UNL1       -0.1669
     18 C         139.4282  137.8954  165.1389 C.3     1  UNL1        0.4311
     19 F         140.2047  136.6390  165.4008 F       1  UNL1       -0.1669
     20 F         140.2364  138.2503  165.0642 F       1  UNL1       -0.1669
     21 F         138.3709  136.8541  165.3572 F       1  UNL1       -0.1669
     22 C         142.1543  138.3305  157.3399 C.3     1  UNL1        0.1081
     23 C         145.5946  140.9130  156.0188 C.ar    1  UNL1        0.1056
     24 C         144.8852  141.2099  157.3067 C.ar    1  UNL1        0.0180
     25 C         143.7384  140.3490  157.7470 C.ar    1  UNL1       -0.0025
     26 C         143.3011  139.1913  156.8995 C.ar    1  UNL1       -0.0133
     27 C         144.0104  138.8944  155.6117 C.ar    1  UNL1       -0.0025
     28 C         145.1572  139.7552  155.1713 C.ar    1  UNL1        0.0180
     29 S         146.7413  141.7738  155.5784 S.O2    1  UNL1        0.0087
     30 O         146.8047  142.3886  156.9452 O.2     1  UNL1       -0.1686
     31 O         146.6780  141.1590  154.2117 O.2     1  UNL1       -0.1686
     32 C         148.4407  142.4956  153.7506 C.3     1  UNL1        0.0276
     33 C         147.8881  142.6347  155.1381 C.3     1  UNL1        0.1560
     34 C         141.4552  137.4479  156.3488 C.3     1  UNL1        0.0985
     35 C         141.8115  135.9937  156.2574 C.2     1  UNL1        0.2233
     36 O         142.9943  135.4624  157.0115 O.2     1  UNL1       -0.2751
     37 N         140.9850  135.0707  155.4118 N.am    1  UNL1       -0.3026
     38 C         141.3413  133.6165  155.3204 C.3     1  UNL1        0.1107
     39 H         140.2087  135.4194  154.9168 H       1  UNL1        0.1495
@<TRIPOS>BOND
     1    32    33    1
     2    33    29    1
     3    29    30    2
     4    29    31    2
     5    29    23    1
     6    23    24   ar
     7    24    25   ar
     8    25    26   ar
     9    26    22    1
    10    22    34    1
    11    34    35    1
    12    35    36    2
    13    35    37   am
    14    37    38    1
    15    22     1    1
    16     1     2    2
    17     1     3   am
    18     3     5    1
    19     5     6   ar
    20     6     7   ar
    21     7     8   ar
    22     8    11    1
    23    11    12    1
    24    11    14    1
    25    14    15    1
    26    14    16    1
    27    14    17    1
    28    11    18    1
    29    18    19    1
    30    18    20    1
    31    18    21    1
    32     8     9   ar
    33     9    10   ar
    34    26    27   ar
    35    27    28   ar
    36    28    23   ar
    37    10     5   ar
    38    37    39    1
    39     3     4    1
    40    12    13    1
@<TRIPOS>MOLECULE
*****
 39 40 0 0 0
SMALL
GASTEIGER

@<TRIPOS>ATOM
      1 C         141.6930  138.3554  158.9653 C.2     1  UNL1        0.2302
      2 O         142.6085  137.7950  160.0131 O.2     1  UNL1       -0.2744
      3 N         140.3744  138.9502  159.3618 N.am    1  UNL1       -0.2836
      4 H         139.7735  139.3180  158.6741 H       1  UNL1        0.1549
      5 C         139.9711  138.9846  160.8063 C.ar    1  UNL1        0.0503
      6 C         140.5955  139.9828  161.7356 C.ar    1  UNL1        0.0144
      7 C         140.1923  140.0173  163.1800 C.ar    1  UNL1       -0.0002
      8 C         139.1648  139.0535  163.6951 C.ar    1  UNL1        0.0182
      9 C         138.5404  138.0553  162.7657 C.ar    1  UNL1       -0.0002
     10 C         138.9436  138.0209  161.3212 C.ar    1  UNL1        0.0144
     11 C         138.7616  139.0879  165.1394 C.3     1  UNL1        0.2827
     12 O         139.2857  137.6940  165.3189 O.3     1  UNL1       -0.3692
     13 H         139.1528  137.4145  166.2383 H       1  UNL1        0.2112
     14 C         138.3584  139.1224  166.5838 C.3     1  UNL1        0.4311
     15 F         137.9553  139.1568  168.0282 F       1  UNL1       -0.1669
     16 F         139.8015  139.2036  166.9847 F       1  UNL1       -0.1669
     17 F         137.4836  139.0772  166.4528 F       1  UNL1       -0.1669
     18 C         138.2375  140.4818  164.9599 C.3     1  UNL1        0.4311
     19 F         137.7134  141.8758  164.7803 F       1  UNL1       -0.1669
     20 F         137.5793  140.2788  164.4030 F       1  UNL1       -0.1669
     21 F         139.1378  141.3214  165.8169 F       1  UNL1       -0.1669
     22 C         142.0963  138.3210  157.5209 C.3     1  UNL1        0.1081
     23 C         141.9567  134.4458  155.2376 C.ar    1  UNL1        0.1056
     24 C         140.9326  135.5093  154.9733 C.ar    1  UNL1        0.0180
     25 C         140.9791  136.8011  155.7344 C.ar    1  UNL1       -0.0025
     26 C         142.0498  137.0292  156.7598 C.ar    1  UNL1       -0.0133
     27 C         143.0739  135.9657  157.0241 C.ar    1  UNL1       -0.0025
     28 C         143.0274  134.6739  156.2630 C.ar    1  UNL1        0.0180
     29 S         141.9102  133.1540  154.4765 S.O2    1  UNL1        0.0087
     30 O         142.1053  133.9038  153.1921 O.2     1  UNL1       -0.1686
     31 O         141.7150  132.4043  155.7609 O.2     1  UNL1       -0.1686
     32 C         143.1140  131.3107  153.0971 C.3     1  UNL1        0.0276
     33 C         141.8637  131.8623  153.7154 C.3     1  UNL1        0.1560
     34 C         142.5461  139.5783  156.8377 C.3     1  UNL1        0.0985
     35 C         143.6483  140.4027  157.4338 C.2     1  UNL1        0.2233
     36 O         145.0782  140.0983  157.0980 O.2     1  UNL1       -0.2751
     37 N         143.3206  141.5315  158.3658 N.am    1  UNL1       -0.3026
     38 C         144.4229  142.3559  158.9619 C.3     1  UNL1        0.1107
     39 H         142.3822  141.7312  158.5862 H       1  UNL1        0.1495
@<TRIPOS>BOND
     1    32    33    1
     2    33    29    1
     3    29    30    2
     4    29    31    2
     5    29    23    1
     6    23    24   ar
     7    24    25   ar
     8    25    26   ar
     9    26    22    1
    10    22    34    1
    11    34    35    1
    12    35    36    2
    13    35    37   am
    14    37    38    1
    15    22     1    1
    16     1     2    2
    17     1     3   am
    18     3     5    1
    19     5     6   ar
    20     6     7   ar
    21     7     8   ar
    22     8    11    1
    23    11    12    1
    24    11    14    1
    25    14    15    1
    26    14    16    1
    27    14    17    1
    28    11    18    1
    29    18    19    1
    30    18    20    1
    31    18    21    1
    32     8     9   ar
    33     9    10   ar
    34    26    27   ar
    35    27    28   ar
    36    28    23   ar
    37    10     5   ar
    38    37    39    1
    39     3     4    1
    40    12    13    1
@<TRIPOS>MOLECULE
*****
 39 40 0 0 0
SMALL
GASTEIGER

@<TRIPOS>ATOM
      1 C         140.4326  138.8088  157.1851 C.2     1  UNL1        0.2302
      2 O         141.4887  139.7485  157.6871 O.2     1  UNL1       -0.2744
      3 N         139.1056  138.7317  157.8802 N.am    1  UNL1       -0.2836
      4 H         138.4125  138.1150  157.5508 H       1  UNL1        0.1549
      5 C         138.8347  139.5942  159.0772 C.ar    1  UNL1        0.0503
      6 C         138.5477  141.0556  158.8990 C.ar    1  UNL1        0.0144
      7 C         138.2768  141.9181  160.0960 C.ar    1  UNL1       -0.0002
      8 C         138.2927  141.3191  161.4711 C.ar    1  UNL1        0.0182
      9 C         138.5797  139.8577  161.6493 C.ar    1  UNL1       -0.0002
     10 C         138.8506  138.9952  160.4523 C.ar    1  UNL1        0.0144
     11 C         138.0218  142.1816  162.6681 C.3     1  UNL1        0.2827
     12 O         136.7173  141.4733  162.8832 O.3     1  UNL1       -0.3692
     13 H         136.2709  141.8464  163.6593 H       1  UNL1        0.2112
     14 C         137.7508  143.0441  163.8650 C.3     1  UNL1        0.4311
     15 F         137.4799  143.9066  165.0620 F       1  UNL1       -0.1669
     16 F         138.2137  141.9383  164.7666 F       1  UNL1       -0.1669
     17 F         137.4601  143.7543  163.4228 F       1  UNL1       -0.1669
     18 C         139.3263  142.8900  162.4529 C.3     1  UNL1        0.4311
     19 F         140.6310  143.5984  162.2378 F       1  UNL1       -0.1669
     20 F         139.8440  142.2814  162.8352 F       1  UNL1       -0.1669
     21 F         138.9406  144.1534  161.7423 F       1  UNL1       -0.1669
     22 C         140.7036  137.9464  155.9882 C.3     1  UNL1        0.1081
     23 C         143.1727  134.2091  156.4203 C.ar    1  UNL1        0.1056
     24 C         142.0643  134.2633  155.4111 C.ar    1  UNL1        0.0180
     25 C         141.2413  135.5090  155.2671 C.ar    1  UNL1       -0.0025
     26 C         141.5266  136.7006  156.1322 C.ar    1  UNL1       -0.0133
     27 C         142.6350  136.6465  157.1414 C.ar    1  UNL1       -0.0025
     28 C         143.4581  135.4008  157.2854 C.ar    1  UNL1        0.0180
     29 S         143.9957  132.9634  156.5643 S.O2    1  UNL1        0.0087
     30 O         143.6208  132.5546  155.1707 O.2     1  UNL1       -0.1686
     31 O         144.3707  133.3722  157.9580 O.2     1  UNL1       -0.1686
     32 C         144.7668  130.6577  155.6483 C.3     1  UNL1        0.0276
     33 C         144.8187  131.7177  156.7084 C.3     1  UNL1        0.1560
     34 C         140.1516  138.3297  154.6472 C.3     1  UNL1        0.0985
     35 C         138.7559  137.9309  154.2688 C.2     1  UNL1        0.2233
     36 O         137.6264  138.1494  155.2313 O.2     1  UNL1       -0.2751
     37 N         138.4899  137.3136  152.9278 N.am    1  UNL1       -0.3026
     38 C         137.0942  136.9147  152.5494 C.3     1  UNL1        0.1107
     39 H         139.2312  137.1702  152.2961 H       1  UNL1        0.1495
@<TRIPOS>BOND
     1    32    33    1
     2    33    29    1
     3    29    30    2
     4    29    31    2
     5    29    23    1
     6    23    24   ar
     7    24    25   ar
     8    25    26   ar
     9    26    22    1
    10    22    34    1
    11    34    35    1
    12    35    36    2
    13    35    37   am
    14    37    38    1
    15    22     1    1
    16     1     2    2
    17     1     3   am
    18     3     5    1
    19     5     6   ar
    20     6     7   ar
    21     7     8   ar
    22     8    11    1
    23    11    12    1
    24    11    14    1
    25    14    15    1
    26    14    16    1
    27    14    17    1
    28    11    18    1
    29    18    19    1
    30    18    20    1
    31    18    21    1
    32     8     9   ar
    33     9    10   ar
    34    26    27   ar
    35    27    28   ar
    36    28    23   ar
    37    10     5   ar
    38    37    39    1
    39     3     4    1
    40    12    13    1
@<TRIPOS>MOLECULE
*****
 39 40 0 0 0
SMALL
GASTEIGER

@<TRIPOS>ATOM
      1 C         140.6329  141.1181  161.6667 C.2     1  UNL1        0.2302
      2 O         141.9668  141.2475  162.3407 O.2     1  UNL1       -0.2744
      3 N         139.4074  140.8224  162.4797 N.am    1  UNL1       -0.2836
      4 H         138.5320  140.7375  162.0374 H       1  UNL1        0.1549
      5 C         139.5158  140.6562  163.9665 C.ar    1  UNL1        0.0503
      6 C         139.6711  141.8610  164.8465 C.ar    1  UNL1        0.0144
      7 C         139.7795  141.6948  166.3333 C.ar    1  UNL1       -0.0002
      8 C         139.7327  140.3238  166.9402 C.ar    1  UNL1        0.0182
      9 C         139.5774  139.1190  166.0602 C.ar    1  UNL1       -0.0002
     10 C         139.4690  139.2853  164.5733 C.ar    1  UNL1        0.0144
     11 C         139.8411  140.1576  168.4270 C.3     1  UNL1        0.2827
     12 O         138.5174  139.4523  168.4446 O.3     1  UNL1       -0.3692
     13 H         138.2982  139.1989  169.3550 H       1  UNL1        0.2112
     14 C         139.9495  139.9914  169.9138 C.3     1  UNL1        0.4311
     15 F         140.0578  139.8253  171.4006 F       1  UNL1       -0.1669
     16 F         138.7391  140.8578  170.0988 F       1  UNL1       -0.1669
     17 F         140.6666  139.4717  169.9124 F       1  UNL1       -0.1669
     18 C         141.1647  140.8629  168.4093 C.3     1  UNL1        0.4311
     19 F         142.4885  141.5683  168.3916 F       1  UNL1       -0.1669
     20 F         141.6215  140.2250  167.9982 F       1  UNL1       -0.1669
     21 F         140.8867  142.1737  169.0834 F       1  UNL1       -0.1669
     22 C         140.5245  141.2843  160.1800 C.3     1  UNL1        0.1081
     23 C         142.4303  138.2712  157.4342 C.ar    1  UNL1        0.1056
     24 C         143.2123  139.4650  157.8961 C.ar    1  UNL1        0.0180
     25 C         142.5770  140.4694  158.8114 C.ar    1  UNL1       -0.0025
     26 C         141.1598  140.2800  159.2647 C.ar    1  UNL1       -0.0133
     27 C         140.3778  139.0862  158.8028 C.ar    1  UNL1       -0.0025
     28 C         141.0131  138.0819  157.8875 C.ar    1  UNL1        0.0180
     29 S         143.0656  137.2669  156.5189 S.O2    1  UNL1        0.0087
     30 O         141.9203  136.3274  156.7550 O.2     1  UNL1       -0.1686
     31 O         144.2109  138.2064  156.2829 O.2     1  UNL1       -0.1686
     32 C         142.8683  135.5478  154.5810 C.3     1  UNL1        0.0276
     33 C         143.7009  136.2625  155.6037 C.3     1  UNL1        0.1560
     34 C         139.7809  142.4549  159.6084 C.3     1  UNL1        0.0985
     35 C         139.4112  143.6113  160.4894 C.2     1  UNL1        0.2233
     36 O         138.1736  143.5448  161.3343 O.2     1  UNL1       -0.2751
     37 N         140.2793  144.8341  160.5256 N.am    1  UNL1       -0.3026
     38 C         139.9096  145.9905  161.4066 C.3     1  UNL1        0.1107
     39 H         141.0916  144.8777  159.9711 H       1  UNL1        0.1495
@<TRIPOS>BOND
     1    32    33    1
     2    33    29    1
     3    29    30    2
     4    29    31    2
     5    29    23    1
     6    23    24   ar
     7    24    25   ar
     8    25    26   ar
     9    26    22    1
    10    22    34    1
    11    34    35    1
    12    35    36    2
    13    35    37   am
    14    37    38    1
    15    22     1    1
    16     1     2    2
    17     1     3   am
    18     3     5    1
    19     5     6   ar
    20     6     7   ar
    21     7     8   ar
    22     8    11    1
    23    11    12    1
    24    11    14    1
    25    14    15    1
    26    14    16    1
    27    14    17    1
    28    11    18    1
    29    18    19    1
    30    18    20    1
    31    18    21    1
    32     8     9   ar
    33     9    10   ar
    34    26    27   ar
    35    27    28   ar
    36    28    23   ar
    37    10     5   ar
    38    37    39    1
    39     3     4    1
    40    12    13    1
@<TRIPOS>MOLECULE
*****
 39 40 0 0 0
SMALL
GASTEIGER

@<TRIPOS>ATOM
      1 C         140.5804  139.0157  158.8607 C.2     1  UNL1        0.2302
      2 O         141.4366  139.9958  159.6067 O.2     1  UNL1       -0.2744
      3 N         139.5268  138.2344  159.5883 N.am    1  UNL1       -0.2836
      4 H         138.9649  137.5911  159.0987 H       1  UNL1        0.1549
      5 C         139.3295  138.4330  161.0620 C.ar    1  UNL1        0.0503
      6 C         138.1878  139.2690  161.5598 C.ar    1  UNL1        0.0144
      7 C         137.9904  139.4677  163.0334 C.ar    1  UNL1       -0.0002
      8 C         138.9347  138.8304  164.0093 C.ar    1  UNL1        0.0182
      9 C         140.0764  137.9945  163.5115 C.ar    1  UNL1       -0.0002
     10 C         140.2738  137.7958  162.0378 C.ar    1  UNL1        0.0144
     11 C         138.7373  139.0291  165.4828 C.3     1  UNL1        0.2827
     12 O         138.6550  137.5434  165.6721 O.3     1  UNL1       -0.3692
     13 H         138.5169  137.3443  166.6114 H       1  UNL1        0.2112
     14 C         138.5399  139.2278  166.9564 C.3     1  UNL1        0.4311
     15 F         138.3425  139.4265  168.4301 F       1  UNL1       -0.1669
     16 F         137.1847  138.5920  166.8606 F       1  UNL1       -0.1669
     17 F         139.3199  139.6147  167.1187 F       1  UNL1       -0.1669
     18 C         138.8197  140.5148  165.2935 C.3     1  UNL1        0.4311
     19 F         138.9020  142.0006  165.1042 F       1  UNL1       -0.1669
     20 F         137.9633  140.6896  165.4375 F       1  UNL1       -0.1669
     21 F         140.2670  140.7620  164.9869 F       1  UNL1       -0.1669
     22 C         140.7778  138.8171  157.3871 C.3     1  UNL1        0.1081
     23 C         142.2906  134.8751  155.8308 C.ar    1  UNL1        0.1056
     24 C         143.0274  135.5796  156.9311 C.ar    1  UNL1        0.0180
     25 C         142.5231  136.8936  157.4499 C.ar    1  UNL1       -0.0025
     26 C         141.2821  137.5031  156.8683 C.ar    1  UNL1       -0.0133
     27 C         140.5453  136.7986  155.7680 C.ar    1  UNL1       -0.0025
     28 C         141.0495  135.4846  155.2492 C.ar    1  UNL1        0.0180
     29 S         142.7948  133.5611  155.3120 S.O2    1  UNL1        0.0087
     30 O         142.3226  133.9235  153.9352 O.2     1  UNL1       -0.1686
     31 O         143.2670  133.1987  156.6888 O.2     1  UNL1       -0.1686
     32 C         142.9311  131.7954  153.4111 C.3     1  UNL1        0.0276
     33 C         143.2991  132.2471  154.7932 C.3     1  UNL1        0.1560
     34 C         140.4709  139.9325  156.4323 C.3     1  UNL1        0.0985
     35 C         139.6770  141.1183  156.8944 C.2     1  UNL1        0.2233
     36 O         138.1934  141.1583  156.6773 O.2     1  UNL1       -0.2751
     37 N         140.3668  142.2641  157.5736 N.am    1  UNL1       -0.3026
     38 C         139.5729  143.4499  158.0357 C.3     1  UNL1        0.1107
     39 H         141.3406  142.2379  157.7161 H       1  UNL1        0.1495
@<TRIPOS>BOND
     1    32    33    1
     2    33    29    1
     3    29    30    2
     4    29    31    2
     5    29    23    1
     6    23    24   ar
     7    24    25   ar
     8    25    26   ar
     9    26    22    1
    10    22    34    1
    11    34    35    1
    12    35    36    2
    13    35    37   am
    14    37    38    1
    15    22     1    1
    16     1     2    2
    17     1     3   am
    18     3     5    1
    19     5     6   ar
    20     6     7   ar
    21     7     8   ar
    22     8    11    1
    23    11    12    1
    24    11    14    1
    25    14    15    1
    26    14    16    1
    27    14    17    1
    28    11    18    1
    29    18    19    1
    30    18    20    1
    31    18    21    1
    32     8     9   ar
    33     9    10   ar
    34    26    27   ar
    35    27    28   ar
    36    28    23   ar
    37    10     5   ar
    38    37    39    1
    39     3     4    1
    40    12    13    1
@<TRIPOS>MOLECULE
*****
 39 40 0 0 0
SMALL
GASTEIGER

@<TRIPOS>ATOM
      1 C         142.5882  137.6430  157.2731 C.2     1  UNL1        0.2302
      2 O         143.8426  138.4161  156.9919 O.2     1  UNL1       -0.2744
      3 N         141.9279  137.7478  158.6159 N.am    1  UNL1       -0.2836
      4 H         141.1046  137.2405  158.8005 H       1  UNL1        0.1549
      5 C         142.5219  138.6255  159.6774 C.ar    1  UNL1        0.0503
      6 C         142.1220  140.0684  159.7679 C.ar    1  UNL1        0.0144
      7 C         142.7160  140.9461  160.8294 C.ar    1  UNL1       -0.0002
      8 C         143.7100  140.3810  161.8003 C.ar    1  UNL1        0.0182
      9 C         144.1100  138.9382  161.7097 C.ar    1  UNL1       -0.0002
     10 C         143.5159  138.0604  160.6482 C.ar    1  UNL1        0.0144
     11 C         144.3040  141.2588  162.8617 C.3     1  UNL1        0.2827
     12 O         144.8226  142.1871  161.8038 O.3     1  UNL1       -0.3692
     13 H         145.2966  142.9224  162.2229 H       1  UNL1        0.2112
     14 C         144.8980  142.1365  163.9232 C.3     1  UNL1        0.4311
     15 F         145.4921  143.0143  164.9846 F       1  UNL1       -0.1669
     16 F         146.2751  141.7799  163.4474 F       1  UNL1       -0.1669
     17 F         144.1337  142.4087  164.2784 F       1  UNL1       -0.1669
     18 C         143.7854  140.3304  163.9196 C.3     1  UNL1        0.4311
     19 F         143.2667  139.4021  164.9776 F       1  UNL1       -0.1669
     20 F         142.9254  140.5123  163.8107 F       1  UNL1       -0.1669
     21 F         145.0218  139.6941  164.4820 F       1  UNL1       -0.1669
     22 C         141.9942  136.7654  156.2116 C.3     1  UNL1        0.1081
     23 C         142.6743  132.3186  156.3284 C.ar    1  UNL1        0.1056
     24 C         143.4844  133.2245  157.2075 C.ar    1  UNL1        0.0180
     25 C         143.2577  134.7068  157.1686 C.ar    1  UNL1       -0.0025
     26 C         142.2209  135.2831  156.2505 C.ar    1  UNL1       -0.0133
     27 C         141.4108  134.3772  155.3714 C.ar    1  UNL1       -0.0025
     28 C         141.6375  132.8949  155.4103 C.ar    1  UNL1        0.0180
     29 S         142.9010  130.8363  156.3673 S.O2    1  UNL1        0.0087
     30 O         144.0488  131.0367  157.3119 O.2     1  UNL1       -0.1686
     31 O         141.7532  130.6360  155.4226 O.2     1  UNL1       -0.1686
     32 C         142.0080  128.4150  156.0680 C.3     1  UNL1        0.0276
     33 C         143.1277  129.3541  156.4062 C.3     1  UNL1        0.1560
     34 C         141.1735  137.3699  155.1112 C.3     1  UNL1        0.0985
     35 C         139.7022  137.5876  155.3058 C.2     1  UNL1        0.2233
     36 O         139.1580  137.8506  156.6786 O.2     1  UNL1       -0.2751
     37 N         138.7750  137.5422  154.1275 N.am    1  UNL1       -0.3026
     38 C         137.3037  137.7599  154.3220 C.3     1  UNL1        0.1107
     39 H         139.1322  137.3696  153.2264 H       1  UNL1        0.1495
@<TRIPOS>BOND
     1    32    33    1
     2    33    29    1
     3    29    30    2
     4    29    31    2
     5    29    23    1
     6    23    24   ar
     7    24    25   ar
     8    25    26   ar
     9    26    22    1
    10    22    34    1
    11    34    35    1
    12    35    36    2
    13    35    37   am
    14    37    38    1
    15    22     1    1
    16     1     2    2
    17     1     3   am
    18     3     5    1
    19     5     6   ar
    20     6     7   ar
    21     7     8   ar
    22     8    11    1
    23    11    12    1
    24    11    14    1
    25    14    15    1
    26    14    16    1
    27    14    17    1
    28    11    18    1
    29    18    19    1
    30    18    20    1
    31    18    21    1
    32     8     9   ar
    33     9    10   ar
    34    26    27   ar
    35    27    28   ar
    36    28    23   ar
    37    10     5   ar
    38    37    39    1
    39     3     4    1
    40    12    13    1
@<TRIPOS>MOLECULE
*****
 39 40 0 0 0
SMALL
GASTEIGER

@<TRIPOS>ATOM
      1 C         141.8526  141.9878  162.5007 C.2     1  UNL1        0.2302
      2 O         141.2731  140.6499  162.8532 O.2     1  UNL1       -0.2744
      3 N         142.1766  142.9737  163.5838 N.am    1  UNL1       -0.2836
      4 H         142.5570  143.8518  163.3524 H       1  UNL1        0.1549
      5 C         141.9211  142.6217  165.0194 C.ar    1  UNL1        0.0503
      6 C         143.0541  142.1754  165.8952 C.ar    1  UNL1        0.0144
      7 C         142.7986  141.8234  167.3307 C.ar    1  UNL1       -0.0002
      8 C         141.4101  141.9177  167.8905 C.ar    1  UNL1        0.0182
      9 C         140.2771  142.3640  167.0146 C.ar    1  UNL1       -0.0002
     10 C         140.5327  142.7160  165.5790 C.ar    1  UNL1        0.0144
     11 C         141.1546  141.5657  169.3260 C.3     1  UNL1        0.2827
     12 O         141.3738  140.1159  169.0095 O.3     1  UNL1       -0.3692
     13 H         141.2653  139.5888  169.8165 H       1  UNL1        0.2112
     14 C         140.8992  141.2136  170.7615 C.3     1  UNL1        0.4311
     15 F         140.6436  140.8616  172.1971 F       1  UNL1       -0.1669
     16 F         139.5511  140.6718  170.3887 F       1  UNL1       -0.1669
     17 F         141.6708  141.5058  171.0834 F       1  UNL1       -0.1669
     18 C         140.9355  143.0154  169.6425 C.3     1  UNL1        0.4311
     19 F         140.7162  144.4652  169.9590 F       1  UNL1       -0.1669
     20 F         140.0521  143.0077  169.5774 F       1  UNL1       -0.1669
     21 F         142.3186  143.5516  169.8645 F       1  UNL1       -0.1669
     22 C         142.1081  142.3398  161.0652 C.3     1  UNL1        0.1081
     23 C         142.3323  139.0926  157.9579 C.ar    1  UNL1        0.1056
     24 C         143.5817  139.5658  158.6397 C.ar    1  UNL1        0.0180
     25 C         143.5070  140.6482  159.6754 C.ar    1  UNL1       -0.0025
     26 C         142.1828  141.2574  160.0294 C.ar    1  UNL1       -0.0133
     27 C         140.9334  140.7842  159.3476 C.ar    1  UNL1       -0.0025
     28 C         141.0081  139.7018  158.3118 C.ar    1  UNL1        0.0180
     29 S         142.4070  138.0102  156.9221 S.O2    1  UNL1        0.0087
     30 O         140.9343  137.7667  157.0703 O.2     1  UNL1       -0.1686
     31 O         143.8796  138.2537  156.7739 O.2     1  UNL1       -0.1686
     32 C         143.8029  136.5620  155.2778 C.3     1  UNL1        0.0276
     33 C         142.4817  136.9278  155.8863 C.3     1  UNL1        0.1560
     34 C         142.2889  143.7742  160.6654 C.3     1  UNL1        0.0985
     35 C         141.1009  144.6867  160.5881 C.2     1  UNL1        0.2233
     36 O         140.2239  144.6747  159.3714 O.2     1  UNL1       -0.2751
     37 N         140.7900  145.6113  161.7277 N.am    1  UNL1       -0.3026
     38 C         139.6020  146.5238  161.6504 C.3     1  UNL1        0.1107
     39 H         141.3657  145.6192  162.5263 H       1  UNL1        0.1495
@<TRIPOS>BOND
     1    32    33    1
     2    33    29    1
     3    29    30    2
     4    29    31    2
     5    29    23    1
     6    23    24   ar
     7    24    25   ar
     8    25    26   ar
     9    26    22    1
    10    22    34    1
    11    34    35    1
    12    35    36    2
    13    35    37   am
    14    37    38    1
    15    22     1    1
    16     1     2    2
    17     1     3   am
    18     3     5    1
    19     5     6   ar
    20     6     7   ar
    21     7     8   ar
    22     8    11    1
    23    11    12    1
    24    11    14    1
    25    14    15    1
    26    14    16    1
    27    14    17    1
    28    11    18    1
    29    18    19    1
    30    18    20    1
    31    18    21    1
    32     8     9   ar
    33     9    10   ar
    34    26    27   ar
    35    27    28   ar
    36    28    23   ar
    37    10     5   ar
    38    37    39    1
    39     3     4    1
    40    12    13    1
@<TRIPOS>MOLECULE
*****
 39 40 0 0 0
SMALL
GASTEIGER

@<TRIPOS>ATOM
      1 C         142.9375  141.0526  161.1003 C.2     1  UNL1        0.2302
      2 O         141.5660  141.4949  161.5169 O.2     1  UNL1       -0.2744
      3 N         143.8788  140.4732  162.1142 N.am    1  UNL1       -0.2836
      4 H         144.7790  140.1829  161.8409 H       1  UNL1        0.1549
      5 C         143.4487  140.3360  163.5447 C.ar    1  UNL1        0.0503
      6 C         142.8774  139.0386  164.0350 C.ar    1  UNL1        0.0144
      7 C         142.4473  138.9013  165.4654 C.ar    1  UNL1       -0.0002
      8 C         142.5884  140.0616  166.4056 C.ar    1  UNL1        0.0182
      9 C         143.1597  141.3590  165.9154 C.ar    1  UNL1       -0.0002
     10 C         143.5898  141.4962  164.4849 C.ar    1  UNL1        0.0144
     11 C         142.1583  139.9244  167.8360 C.3     1  UNL1        0.2827
     12 O         143.1707  138.8359  168.0361 O.3     1  UNL1       -0.3692
     13 H         143.1267  138.5176  168.9513 H       1  UNL1        0.2112
     14 C         141.7281  139.7871  169.2664 C.3     1  UNL1        0.4311
     15 F         141.2980  139.6499  170.6969 F       1  UNL1       -0.1669
     16 F         143.0828  140.2464  169.7179 F       1  UNL1       -0.1669
     17 F         140.9032  139.5081  169.1049 F       1  UNL1       -0.1669
     18 C         141.1458  141.0129  167.6360 C.3     1  UNL1        0.4311
     19 F         140.1333  142.1014  167.4359 F       1  UNL1       -0.1669
     20 F         140.6023  140.5584  167.1043 F       1  UNL1       -0.1669
     21 F         141.6798  142.1583  168.4439 F       1  UNL1       -0.1669
     22 C         143.3675  141.1898  159.6699 C.3     1  UNL1        0.1081
     23 C         143.0924  137.6623  156.8894 C.ar    1  UNL1        0.1056
     24 C         143.6094  138.9767  156.3845 C.ar    1  UNL1        0.0180
     25 C         143.7011  140.1526  157.3113 C.ar    1  UNL1       -0.0025
     26 C         143.2758  140.0140  158.7431 C.ar    1  UNL1       -0.0133
     27 C         142.7588  138.6996  159.2479 C.ar    1  UNL1       -0.0025
     28 C         142.6671  137.5237  158.3211 C.ar    1  UNL1        0.0180
     29 S         143.0007  136.4865  155.9626 S.O2    1  UNL1        0.0087
     30 O         141.5450  136.3394  156.2932 O.2     1  UNL1       -0.1686
     31 O         144.4564  136.6336  155.6319 O.2     1  UNL1       -0.1686
     32 C         142.1534  134.0839  155.4530 C.3     1  UNL1        0.0276
     33 C         142.9090  135.3107  155.0357 C.3     1  UNL1        0.1560
     34 C         143.8893  142.5028  159.1663 C.3     1  UNL1        0.0985
     35 C         142.9338  143.6033  158.8116 C.2     1  UNL1        0.2233
     36 O         142.7861  144.0371  157.3833 O.2     1  UNL1       -0.2751
     37 N         142.1258  144.2701  159.8853 N.am    1  UNL1       -0.3026
     38 C         141.1702  145.3706  159.5306 C.3     1  UNL1        0.1107
     39 H         142.2227  143.9854  160.8227 H       1  UNL1        0.1495
@<TRIPOS>BOND
     1    32    33    1
     2    33    29    1
     3    29    30    2
     4    29    31    2
     5    29    23    1
     6    23    24   ar
     7    24    25   ar
     8    25    26   ar
     9    26    22    1
    10    22    34    1
    11    34    35    1
    12    35    36    2
    13    35    37   am
    14    37    38    1
    15    22     1    1
    16     1     2    2
    17     1     3   am
    18     3     5    1
    19     5     6   ar
    20     6     7   ar
    21     7     8   ar
    22     8    11    1
    23    11    12    1
    24    11    14    1
    25    14    15    1
    26    14    16    1
    27    14    17    1
    28    11    18    1
    29    18    19    1
    30    18    20    1
    31    18    21    1
    32     8     9   ar
    33     9    10   ar
    34    26    27   ar
    35    27    28   ar
    36    28    23   ar
    37    10     5   ar
    38    37    39    1
    39     3     4    1
    40    12    13    1
