@<TRIPOS>MOLECULE
*****
 38 42 0 0 0
SMALL
GASTEIGER

@<TRIPOS>ATOM
      1 C         140.7308  139.5447  159.9501 C.ar    1  UNL1        0.1233
      2 C         140.9105  139.1815  161.3943 C.ar    1  UNL1        0.1180
      3 N         140.5840  140.3902  162.2204 N.ar    1  UNL1       -0.2233
      4 N         140.2025  141.5004  161.2866 N.ar    1  UNL1       -0.0634
      5 N         140.2933  140.9779  159.8835 N.ar    1  UNL1       -0.1287
      6 C         140.6307  140.4740  163.7173 C.3     1  UNL1        0.1834
      7 C         141.8710  141.0876  164.2964 C.3     1  UNL1        0.0386
      8 C         142.2177  141.3118  165.7384 C.3     1  UNL1        0.0324
      9 C         141.4101  140.9778  166.9575 C.ar    1  UNL1        0.0195
     10 C         140.0561  140.3371  167.0356 C.ar    1  UNL1        0.0524
     11 C         139.4196  140.0893  168.3710 C.ar    1  UNL1        0.0152
     12 C         140.1370  140.4822  169.6283 C.ar    1  UNL1        0.0102
     13 C         141.4910  141.1229  169.5502 C.ar    1  UNL1        0.0617
     14 BR        142.2085  141.5158  170.8076 Br      1  UNL1       -0.0467
     15 C         142.1276  141.3707  168.2148 C.ar    1  UNL1        0.1434
     16 F         143.4816  142.0115  168.1367 F       1  UNL1       -0.2039
     17 N         139.1754  139.8721  165.9140 N.am    1  UNL1       -0.2491
     18 C         139.4310  139.9330  164.4372 C.2     1  UNL1        0.2520
     19 O         138.4498  139.4247  163.4228 O.2     1  UNL1       -0.2724
     20 C         137.8657  139.2661  166.3232 C.3     1  UNL1        0.2016
     21 C         137.7785  137.7982  166.6195 C.3     1  UNL1        0.4160
     22 F         137.6914  136.3303  166.9157 F       1  UNL1       -0.1682
     23 F         138.7470  137.3418  165.5689 F       1  UNL1       -0.1682
     24 F         136.7920  138.0777  167.7144 F       1  UNL1       -0.1682
     25 C         140.0064  137.2940  156.7627 C.ar    1  UNL1        0.1547
     26 C         139.7869  138.2042  157.9346 C.ar    1  UNL1        0.0400
     27 C         140.9502  138.6345  158.7782 C.ar    1  UNL1        0.0241
     28 C         142.3329  138.1545  158.4499 C.ar    1  UNL1        0.0033
     29 C         142.5523  137.2443  157.2780 C.ar    1  UNL1        0.0207
     30 C         141.3891  136.8141  156.4344 C.ar    1  UNL1        0.0994
     31 N         141.6085  135.9038  155.2625 N.ar    1  UNL1       -0.2839
     32 C         141.7457  136.3279  153.8302 C.ar    1  UNL1        0.1826
     33 N         141.9513  135.0959  152.9997 N.ar    1  UNL1       -0.2280
     34 C         141.9411  133.9104  153.9186 C.ar    1  UNL1        0.0786
     35 C         142.1127  132.4771  153.5107 C.3     1  UNL1        0.0538
     36 C         141.7293  134.4097  155.3171 C.ar    1  UNL1        0.0963
     37 C         138.3812  137.7266  154.7824 C.3     1  UNL1        0.2525
     38 O         138.8431  136.8638  155.9191 O.3     1  UNL1       -0.4700
@<TRIPOS>BOND
     1    37    38    1
     2    38    25    1
     3    25    26   ar
     4    26    27   ar
     5    27     1    1
     6     1     2   ar
     7     2     3   ar
     8     3     6    1
     9     6     7    1
    10     7     8    1
    11     8     9    1
    12     9    10   ar
    13    10    11   ar
    14    11    12   ar
    15    12    13   ar
    16    13    14    1
    17    13    15   ar
    18    15    16    1
    19    10    17    1
    20    17    20    1
    21    20    21    1
    22    21    22    1
    23    21    23    1
    24    21    24    1
    25    17    18   am
    26    18    19    2
    27     3     4   ar
    28     4     5   ar
    29    27    28   ar
    30    28    29   ar
    31    29    30   ar
    32    30    31    1
    33    31    32   ar
    34    32    33   ar
    35    33    34   ar
    36    34    35    1
    37    34    36   ar
    38    30    25   ar
    39    36    31   ar
    40     5     1   ar
    41    18     6    1
    42    15     9   ar
@<TRIPOS>MOLECULE
*****
 38 42 0 0 0
SMALL
GASTEIGER

@<TRIPOS>ATOM
      1 C         142.6875  137.7213  157.6854 C.ar    1  UNL1        0.1233
      2 C         141.9102  138.1759  158.8851 C.ar    1  UNL1        0.1180
      3 N         142.4794  139.4883  159.3363 N.ar    1  UNL1       -0.2233
      4 N         143.6085  139.8449  158.4154 N.ar    1  UNL1       -0.0634
      5 N         143.7371  138.7528  157.3951 N.ar    1  UNL1       -0.1287
      6 C         142.0032  140.3014  160.5033 C.3     1  UNL1        0.1834
      7 C         140.7908  141.1490  160.2546 C.3     1  UNL1        0.0386
      8 C         140.0782  142.0639  161.2059 C.3     1  UNL1        0.0324
      9 C         140.4018  142.3572  162.6410 C.ar    1  UNL1        0.0195
     10 C         141.5180  141.8080  163.4791 C.ar    1  UNL1        0.0524
     11 C         141.6637  142.2376  164.9088 C.ar    1  UNL1        0.0152
     12 C         140.6932  143.2163  165.5004 C.ar    1  UNL1        0.0102
     13 C         139.5769  143.7655  164.6623 C.ar    1  UNL1        0.0617
     14 BR        138.6064  144.7443  165.2540 Br      1  UNL1       -0.0467
     15 C         139.4312  143.3359  163.2326 C.ar    1  UNL1        0.1434
     16 F         138.3150  143.8851  162.3945 F       1  UNL1       -0.2039
     17 N         142.5863  140.8299  163.0891 N.am    1  UNL1       -0.2491
     18 C         142.8023  140.1594  161.7648 C.2     1  UNL1        0.2520
     19 O         143.9238  139.1943  161.5180 O.2     1  UNL1       -0.2724
     20 C         143.5686  140.4755  164.1659 C.3     1  UNL1        0.2016
     21 C         144.9950  140.9272  164.0582 C.3     1  UNL1        0.4160
     22 F         146.4212  141.3789  163.9506 F       1  UNL1       -0.1682
     23 F         144.7081  142.3677  163.7540 F       1  UNL1       -0.1682
     24 F         145.4592  139.5312  164.3515 F       1  UNL1       -0.1682
     25 C         143.0809  133.9890  156.3952 C.ar    1  UNL1        0.1547
     26 C         143.3126  135.2530  157.1687 C.ar    1  UNL1        0.0400
     27 C         142.4558  136.4572  156.9119 C.ar    1  UNL1        0.0241
     28 C         141.3673  136.3972  155.8817 C.ar    1  UNL1        0.0033
     29 C         141.1356  135.1331  155.1081 C.ar    1  UNL1        0.0207
     30 C         141.9924  133.9291  155.3649 C.ar    1  UNL1        0.0994
     31 N         141.7606  132.6649  154.5913 N.ar    1  UNL1       -0.2839
     32 C         142.5108  132.2301  153.3673 C.ar    1  UNL1        0.1826
     33 N         141.9518  130.9102  152.9256 N.ar    1  UNL1       -0.2280
     34 C         140.8562  130.5291  153.8765 C.ar    1  UNL1        0.0786
     35 C         140.0246  129.2825  153.8096 C.3     1  UNL1        0.0538
     36 C         140.7380  131.6136  154.9060 C.ar    1  UNL1        0.0963
     37 C         144.8172  132.7353  157.8661 C.3     1  UNL1        0.2525
     38 O         143.9377  132.7849  156.6520 O.3     1  UNL1       -0.4700
@<TRIPOS>BOND
     1    37    38    1
     2    38    25    1
     3    25    26   ar
     4    26    27   ar
     5    27     1    1
     6     1     2   ar
     7     2     3   ar
     8     3     6    1
     9     6     7    1
    10     7     8    1
    11     8     9    1
    12     9    10   ar
    13    10    11   ar
    14    11    12   ar
    15    12    13   ar
    16    13    14    1
    17    13    15   ar
    18    15    16    1
    19    10    17    1
    20    17    20    1
    21    20    21    1
    22    21    22    1
    23    21    23    1
    24    21    24    1
    25    17    18   am
    26    18    19    2
    27     3     4   ar
    28     4     5   ar
    29    27    28   ar
    30    28    29   ar
    31    29    30   ar
    32    30    31    1
    33    31    32   ar
    34    32    33   ar
    35    33    34   ar
    36    34    35    1
    37    34    36   ar
    38    30    25   ar
    39    36    31   ar
    40     5     1   ar
    41    18     6    1
    42    15     9   ar
@<TRIPOS>MOLECULE
*****
 38 42 0 0 0
SMALL
GASTEIGER

@<TRIPOS>ATOM
      1 C         139.4974  143.4510  160.0864 C.ar    1  UNL1        0.1233
      2 C         140.3880  143.3796  161.2912 C.ar    1  UNL1        0.1180
      3 N         139.6692  142.6021  162.3537 N.ar    1  UNL1       -0.2233
      4 N         138.3343  142.1929  161.8054 N.ar    1  UNL1       -0.0634
      5 N         138.2281  142.7175  160.4042 N.ar    1  UNL1       -0.1287
      6 C         140.1933  142.2887  163.7238 C.3     1  UNL1        0.1834
      7 C         139.7759  143.2330  164.8119 C.3     1  UNL1        0.0386
      8 C         140.1276  143.1943  166.2696 C.3     1  UNL1        0.0324
      9 C         140.9836  142.2018  166.9992 C.ar    1  UNL1        0.0195
     10 C         141.6993  141.0028  166.4512 C.ar    1  UNL1        0.0524
     11 C         142.5110  140.1320  167.3637 C.ar    1  UNL1        0.0152
     12 C         142.6070  140.4601  168.8242 C.ar    1  UNL1        0.0102
     13 C         141.8913  141.6591  169.3722 C.ar    1  UNL1        0.0617
     14 BR        141.9874  141.9872  170.8327 Br      1  UNL1       -0.0467
     15 C         141.0796  142.5299  168.4596 C.ar    1  UNL1        0.1434
     16 F         140.3639  143.7288  169.0076 F       1  UNL1       -0.2039
     17 N         141.7358  140.5003  165.0383 N.am    1  UNL1       -0.2491
     18 C         141.0656  141.0725  163.8245 C.2     1  UNL1        0.2520
     19 O         141.1923  140.4570  162.4625 O.2     1  UNL1       -0.2724
     20 C         142.5502  139.2617  164.8090 C.3     1  UNL1        0.2016
     21 C         141.8774  137.9893  164.3865 C.3     1  UNL1        0.4160
     22 F         141.2046  136.7169  163.9642 F       1  UNL1       -0.1682
     23 F         140.8099  137.9882  165.4404 F       1  UNL1       -0.1682
     24 F         142.8703  137.8340  163.2729 F       1  UNL1       -0.1682
     25 C         139.4790  144.3736  156.2266 C.ar    1  UNL1        0.1547
     26 C         139.1569  143.6890  157.5217 C.ar    1  UNL1        0.0400
     27 C         139.8195  144.1356  158.7912 C.ar    1  UNL1        0.0241
     28 C         140.8042  145.2668  158.7655 C.ar    1  UNL1        0.0033
     29 C         141.1262  145.9514  157.4703 C.ar    1  UNL1        0.0207
     30 C         140.4637  145.5048  156.2009 C.ar    1  UNL1        0.0994
     31 N         140.7858  146.1895  154.9056 N.ar    1  UNL1       -0.2839
     32 C         141.7423  145.6953  153.8611 C.ar    1  UNL1        0.1826
     33 N         141.7556  146.6889  152.7376 N.ar    1  UNL1       -0.2280
     34 C         140.8074  147.7972  153.0876 C.ar    1  UNL1        0.0786
     35 C         140.5107  149.0026  152.2456 C.3     1  UNL1        0.0538
     36 C         140.2080  147.4886  154.4276 C.ar    1  UNL1        0.0963
     37 C         137.4948  144.5115  154.5551 C.3     1  UNL1        0.2525
     38 O         138.8164  143.9270  154.9571 O.3     1  UNL1       -0.4700
@<TRIPOS>BOND
     1    37    38    1
     2    38    25    1
     3    25    26   ar
     4    26    27   ar
     5    27     1    1
     6     1     2   ar
     7     2     3   ar
     8     3     6    1
     9     6     7    1
    10     7     8    1
    11     8     9    1
    12     9    10   ar
    13    10    11   ar
    14    11    12   ar
    15    12    13   ar
    16    13    14    1
    17    13    15   ar
    18    15    16    1
    19    10    17    1
    20    17    20    1
    21    20    21    1
    22    21    22    1
    23    21    23    1
    24    21    24    1
    25    17    18   am
    26    18    19    2
    27     3     4   ar
    28     4     5   ar
    29    27    28   ar
    30    28    29   ar
    31    29    30   ar
    32    30    31    1
    33    31    32   ar
    34    32    33   ar
    35    33    34   ar
    36    34    35    1
    37    34    36   ar
    38    30    25   ar
    39    36    31   ar
    40     5     1   ar
    41    18     6    1
    42    15     9   ar
@<TRIPOS>MOLECULE
*****
 38 42 0 0 0
SMALL
GASTEIGER

@<TRIPOS>ATOM
      1 C         139.5644  143.4252  160.2410 C.ar    1  UNL1        0.1233
      2 C         140.3606  143.1519  161.4825 C.ar    1  UNL1        0.1180
      3 N         139.4095  142.7120  162.5557 N.ar    1  UNL1       -0.2233
      4 N         138.0254  142.7134  161.9774 N.ar    1  UNL1       -0.0634
      5 N         138.1212  143.1541  160.5468 N.ar    1  UNL1       -0.1287
      6 C         139.7777  142.3367  163.9606 C.3     1  UNL1        0.1834
      7 C         139.6906  143.4400  164.9731 C.3     1  UNL1        0.0386
      8 C         139.9886  143.3867  166.4422 C.3     1  UNL1        0.0324
      9 C         140.4473  142.2171  167.2617 C.ar    1  UNL1        0.0195
     10 C         140.7213  140.8118  166.8144 C.ar    1  UNL1        0.0524
     11 C         141.1772  139.7841  167.8074 C.ar    1  UNL1        0.0152
     12 C         141.3591  140.1617  169.2476 C.ar    1  UNL1        0.0102
     13 C         141.0851  141.5670  169.6949 C.ar    1  UNL1        0.0617
     14 BR        141.2670  141.9446  171.1352 Br      1  UNL1       -0.0467
     15 C         140.6292  142.5947  168.7019 C.ar    1  UNL1        0.1434
     16 F         140.3552  144.0000  169.1492 F       1  UNL1       -0.2039
     17 N         140.6043  140.2291  165.4372 N.am    1  UNL1       -0.2491
     18 C         140.1843  140.9077  164.1671 C.2     1  UNL1        0.2520
     19 O         140.1131  140.1920  162.8507 O.2     1  UNL1       -0.2724
     20 C         140.9533  138.7755  165.3137 C.3     1  UNL1        0.2016
     21 C         139.8646  137.7491  165.2074 C.3     1  UNL1        0.4160
     22 F         138.7759  136.7228  165.1011 F       1  UNL1       -0.1682
     23 F         138.7521  138.6077  165.7320 F       1  UNL1       -0.1682
     24 F         140.8518  136.7580  164.6658 F       1  UNL1       -0.1682
     25 C         140.0950  143.8179  156.3277 C.ar    1  UNL1        0.1547
     26 C         139.5445  143.3549  157.6439 C.ar    1  UNL1        0.0400
     27 C         140.1149  143.8881  158.9247 C.ar    1  UNL1        0.0241
     28 C         141.2357  144.8843  158.8891 C.ar    1  UNL1        0.0033
     29 C         141.7862  145.3472  157.5728 C.ar    1  UNL1        0.0207
     30 C         141.2158  144.8141  156.2921 C.ar    1  UNL1        0.0994
     31 N         141.7663  145.2771  154.9758 N.ar    1  UNL1       -0.2839
     32 C         141.0988  146.2270  154.0260 C.ar    1  UNL1        0.1826
     33 N         142.0010  146.4084  152.8415 N.ar    1  UNL1       -0.2280
     34 C         143.2260  145.5707  153.0591 C.ar    1  UNL1        0.0786
     35 C         144.3915  145.4528  152.1222 C.3     1  UNL1        0.0538
     36 C         143.0810  144.8715  154.3782 C.ar    1  UNL1        0.0963
     37 C         138.7495  142.0005  155.0483 C.3     1  UNL1        0.2525
     38 O         139.5246  143.2847  155.0469 O.3     1  UNL1       -0.4700
@<TRIPOS>BOND
     1    37    38    1
     2    38    25    1
     3    25    26   ar
     4    26    27   ar
     5    27     1    1
     6     1     2   ar
     7     2     3   ar
     8     3     6    1
     9     6     7    1
    10     7     8    1
    11     8     9    1
    12     9    10   ar
    13    10    11   ar
    14    11    12   ar
    15    12    13   ar
    16    13    14    1
    17    13    15   ar
    18    15    16    1
    19    10    17    1
    20    17    20    1
    21    20    21    1
    22    21    22    1
    23    21    23    1
    24    21    24    1
    25    17    18   am
    26    18    19    2
    27     3     4   ar
    28     4     5   ar
    29    27    28   ar
    30    28    29   ar
    31    29    30   ar
    32    30    31    1
    33    31    32   ar
    34    32    33   ar
    35    33    34   ar
    36    34    35    1
    37    34    36   ar
    38    30    25   ar
    39    36    31   ar
    40     5     1   ar
    41    18     6    1
    42    15     9   ar
@<TRIPOS>MOLECULE
*****
 38 42 0 0 0
SMALL
GASTEIGER

@<TRIPOS>ATOM
      1 C         144.3231  142.6439  159.6866 C.ar    1  UNL1        0.1233
      2 C         144.4204  141.9958  161.0359 C.ar    1  UNL1        0.1180
      3 N         143.2258  142.4167  161.8395 N.ar    1  UNL1       -0.2233
      4 N         142.3903  143.3249  160.9869 N.ar    1  UNL1       -0.0634
      5 N         143.0684  143.4653  159.6563 N.ar    1  UNL1       -0.1287
      6 C         142.9204  142.0022  163.2484 C.3     1  UNL1        0.1834
      7 C         143.6689  142.7380  164.3200 C.3     1  UNL1        0.0386
      8 C         143.5887  142.5600  165.8073 C.3     1  UNL1        0.0324
      9 C         142.7403  141.6022  166.5902 C.ar    1  UNL1        0.0195
     10 C         141.7625  140.5860  166.0793 C.ar    1  UNL1        0.0524
     11 C         141.0091  139.7188  167.0439 C.ar    1  UNL1        0.0152
     12 C         141.2336  139.8680  168.5194 C.ar    1  UNL1        0.0102
     13 C         142.2114  140.8843  169.0304 C.ar    1  UNL1        0.0617
     14 BR        142.4358  141.0334  170.5060 Br      1  UNL1       -0.0467
     15 C         142.9647  141.7514  168.0658 C.ar    1  UNL1        0.1434
     16 F         143.9425  142.7677  168.5768 F       1  UNL1       -0.2039
     17 N         141.3916  140.2765  164.6591 N.am    1  UNL1       -0.2491
     18 C         141.9069  140.9067  163.3993 C.2     1  UNL1        0.2520
     19 O         141.4405  140.4913  162.0355 O.2     1  UNL1       -0.2724
     20 C         140.3704  139.1934  164.4745 C.3     1  UNL1        0.2016
     21 C         140.7931  137.8392  163.9872 C.3     1  UNL1        0.4160
     22 F         141.2158  136.4850  163.4999 F       1  UNL1       -0.1682
     23 F         142.1709  137.8534  164.5799 F       1  UNL1       -0.1682
     24 F         139.4567  137.6585  163.3301 F       1  UNL1       -0.1682
     25 C         145.9575  141.4905  156.2591 C.ar    1  UNL1        0.1547
     26 C         144.9730  141.6379  157.3810 C.ar    1  UNL1        0.0400
     27 C         145.3077  142.4964  158.5646 C.ar    1  UNL1        0.0241
     28 C         146.6270  143.2074  158.6263 C.ar    1  UNL1        0.0033
     29 C         147.6116  143.0599  157.5043 C.ar    1  UNL1        0.0207
     30 C         147.2769  142.2015  156.3208 C.ar    1  UNL1        0.0994
     31 N         148.2615  142.0540  155.1988 N.ar    1  UNL1       -0.2839
     32 C         148.0529  142.4917  153.7793 C.ar    1  UNL1        0.1826
     33 N         149.2901  142.1511  153.0027 N.ar    1  UNL1       -0.2280
     34 C         150.2634  141.5030  153.9420 C.ar    1  UNL1        0.0786
     35 C         151.6321  141.0026  153.5865 C.3     1  UNL1        0.0538
     36 C         149.6277  141.4429  155.2993 C.ar    1  UNL1        0.0963
     37 C         145.0372  139.2664  155.2811 C.3     1  UNL1        0.2525
     38 O         145.6228  140.6319  155.0755 O.3     1  UNL1       -0.4700
@<TRIPOS>BOND
     1    37    38    1
     2    38    25    1
     3    25    26   ar
     4    26    27   ar
     5    27     1    1
     6     1     2   ar
     7     2     3   ar
     8     3     6    1
     9     6     7    1
    10     7     8    1
    11     8     9    1
    12     9    10   ar
    13    10    11   ar
    14    11    12   ar
    15    12    13   ar
    16    13    14    1
    17    13    15   ar
    18    15    16    1
    19    10    17    1
    20    17    20    1
    21    20    21    1
    22    21    22    1
    23    21    23    1
    24    21    24    1
    25    17    18   am
    26    18    19    2
    27     3     4   ar
    28     4     5   ar
    29    27    28   ar
    30    28    29   ar
    31    29    30   ar
    32    30    31    1
    33    31    32   ar
    34    32    33   ar
    35    33    34   ar
    36    34    35    1
    37    34    36   ar
    38    30    25   ar
    39    36    31   ar
    40     5     1   ar
    41    18     6    1
    42    15     9   ar
@<TRIPOS>MOLECULE
*****
 38 42 0 0 0
SMALL
GASTEIGER

@<TRIPOS>ATOM
      1 C         141.0388  138.8953  158.9497 C.ar    1  UNL1        0.1233
      2 C         141.0892  138.5958  160.4186 C.ar    1  UNL1        0.1180
      3 N         140.9207  139.8881  161.1613 N.ar    1  UNL1       -0.2233
      4 N         140.7662  140.9863  160.1514 N.ar    1  UNL1       -0.0634
      5 N         140.8391  140.3728  158.7845 N.ar    1  UNL1       -0.1287
      6 C         140.9088  140.0532  162.6522 C.3     1  UNL1        0.1834
      7 C         139.6584  139.6017  163.3470 C.3     1  UNL1        0.0386
      8 C         139.3394  139.6334  164.8123 C.3     1  UNL1        0.0324
      9 C         140.1918  140.1245  165.9447 C.ar    1  UNL1        0.0195
     10 C         141.5738  140.7051  165.8915 C.ar    1  UNL1        0.0524
     11 C         142.2546  141.1383  167.1559 C.ar    1  UNL1        0.0152
     12 C         141.5533  140.9910  168.4736 C.ar    1  UNL1        0.0102
     13 C         140.1712  140.4104  168.5269 C.ar    1  UNL1        0.0617
     14 BR        139.4699  140.2631  169.8447 Br      1  UNL1       -0.0467
     15 C         139.4905  139.9771  167.2624 C.ar    1  UNL1        0.1434
     16 F         138.1084  139.3965  167.3157 F       1  UNL1       -0.2039
     17 N         142.4448  140.9380  164.6926 N.am    1  UNL1       -0.2491
     18 C         142.1489  140.6479  163.2510 C.2     1  UNL1        0.2520
     19 O         143.1248  140.9364  162.1490 O.2     1  UNL1       -0.2724
     20 C         143.7895  141.5408  164.9724 C.3     1  UNL1        0.2016
     21 C         144.0167  143.0060  164.7450 C.3     1  UNL1        0.4160
     22 F         144.2438  144.4711  164.5176 F       1  UNL1       -0.1682
     23 F         142.5742  143.4173  164.7479 F       1  UNL1       -0.1682
     24 F         145.4980  142.7715  164.7141 F       1  UNL1       -0.1682
     25 C         142.5403  136.0686  156.6035 C.ar    1  UNL1        0.1547
     26 C         142.4134  137.0705  157.7125 C.ar    1  UNL1        0.0400
     27 C         141.1658  137.8933  157.8407 C.ar    1  UNL1        0.0241
     28 C         140.0451  137.7142  156.8599 C.ar    1  UNL1        0.0033
     29 C         140.1721  136.7122  155.7509 C.ar    1  UNL1        0.0207
     30 C         141.4196  135.8894  155.6227 C.ar    1  UNL1        0.0994
     31 N         141.5465  134.8874  154.5137 N.ar    1  UNL1       -0.2839
     32 C         141.8701  135.1937  153.0814 C.ar    1  UNL1        0.1826
     33 N         141.8957  133.8988  152.3248 N.ar    1  UNL1       -0.2280
     34 C         141.5879  132.7922  153.2894 C.ar    1  UNL1        0.0786
     35 C         141.5097  131.3310  152.9592 C.3     1  UNL1        0.0538
     36 C         141.3721  133.4031  154.6422 C.ar    1  UNL1        0.0963
     37 C         143.9196  133.9597  157.2359 C.3     1  UNL1        0.2525
     38 O         143.7879  135.2458  156.4753 O.3     1  UNL1       -0.4700
@<TRIPOS>BOND
     1    37    38    1
     2    38    25    1
     3    25    26   ar
     4    26    27   ar
     5    27     1    1
     6     1     2   ar
     7     2     3   ar
     8     3     6    1
     9     6     7    1
    10     7     8    1
    11     8     9    1
    12     9    10   ar
    13    10    11   ar
    14    11    12   ar
    15    12    13   ar
    16    13    14    1
    17    13    15   ar
    18    15    16    1
    19    10    17    1
    20    17    20    1
    21    20    21    1
    22    21    22    1
    23    21    23    1
    24    21    24    1
    25    17    18   am
    26    18    19    2
    27     3     4   ar
    28     4     5   ar
    29    27    28   ar
    30    28    29   ar
    31    29    30   ar
    32    30    31    1
    33    31    32   ar
    34    32    33   ar
    35    33    34   ar
    36    34    35    1
    37    34    36   ar
    38    30    25   ar
    39    36    31   ar
    40     5     1   ar
    41    18     6    1
    42    15     9   ar
@<TRIPOS>MOLECULE
*****
 38 42 0 0 0
SMALL
GASTEIGER

@<TRIPOS>ATOM
      1 C         143.3135  141.1786  159.4251 C.ar    1  UNL1        0.1233
      2 C         143.5056  141.3990  160.8963 C.ar    1  UNL1        0.1180
      3 N         142.2126  141.0786  161.5858 N.ar    1  UNL1       -0.2233
      4 N         141.2213  140.6602  160.5407 N.ar    1  UNL1       -0.0634
      5 N         141.9017  140.7219  159.2053 N.ar    1  UNL1       -0.1287
      6 C         141.9559  141.1621  163.0613 C.3     1  UNL1        0.1834
      7 C         142.5152  140.0391  163.8837 C.3     1  UNL1        0.0386
      8 C         142.4305  139.8342  165.3672 C.3     1  UNL1        0.0324
      9 C         141.7658  140.7015  166.3948 C.ar    1  UNL1        0.0195
     10 C         141.0215  141.9881  166.1926 C.ar    1  UNL1        0.0524
     11 C         140.4271  142.7036  167.3693 C.ar    1  UNL1        0.0152
     12 C         140.5770  142.1326  168.7482 C.ar    1  UNL1        0.0102
     13 C         141.3213  140.8460  168.9504 C.ar    1  UNL1        0.0617
     14 BR        141.4711  140.2750  170.3294 Br      1  UNL1       -0.0467
     15 C         141.9157  140.1305  167.7737 C.ar    1  UNL1        0.1434
     16 F         142.6599  138.8440  167.9759 F       1  UNL1       -0.2039
     17 N         140.7582  142.7250  164.9129 N.am    1  UNL1       -0.2491
     18 C         141.1740  142.3574  163.5193 C.2     1  UNL1        0.2520
     19 O         140.8363  143.1984  162.3241 O.2     1  UNL1       -0.2724
     20 C         139.9754  143.9978  165.0441 C.3     1  UNL1        0.2016
     21 C         138.6382  144.1282  164.3770 C.3     1  UNL1        0.4160
     22 F         137.3011  144.2584  163.7099 F       1  UNL1       -0.1682
     23 F         138.0272  142.8826  164.9472 F       1  UNL1       -0.1682
     24 F         139.0897  145.3991  163.7205 F       1  UNL1       -0.1682
     25 C         145.4627  140.6358  156.1333 C.ar    1  UNL1        0.1547
     26 C         144.4252  140.4348  157.1977 C.ar    1  UNL1        0.0400
     27 C         144.3510  141.3795  158.3605 C.ar    1  UNL1        0.0241
     28 C         145.3142  142.5251  158.4588 C.ar    1  UNL1        0.0033
     29 C         146.3517  142.7261  157.3943 C.ar    1  UNL1        0.0207
     30 C         146.4260  141.7814  156.2316 C.ar    1  UNL1        0.0994
     31 N         147.4635  141.9824  155.1670 N.ar    1  UNL1       -0.2839
     32 C         147.2147  142.4913  153.7781 C.ar    1  UNL1        0.1826
     33 N         148.5294  142.5331  153.0573 N.ar    1  UNL1       -0.2280
     34 C         149.5909  142.0502  154.0007 C.ar    1  UNL1        0.0786
     35 C         151.0542  141.9289  153.6940 C.3     1  UNL1        0.0538
     36 C         148.9321  141.7098  155.3046 C.ar    1  UNL1        0.0963
     37 C         144.8089  138.3807  155.0211 C.3     1  UNL1        0.2525
     38 O         145.5370  139.6911  154.9705 O.3     1  UNL1       -0.4700
@<TRIPOS>BOND
     1    37    38    1
     2    38    25    1
     3    25    26   ar
     4    26    27   ar
     5    27     1    1
     6     1     2   ar
     7     2     3   ar
     8     3     6    1
     9     6     7    1
    10     7     8    1
    11     8     9    1
    12     9    10   ar
    13    10    11   ar
    14    11    12   ar
    15    12    13   ar
    16    13    14    1
    17    13    15   ar
    18    15    16    1
    19    10    17    1
    20    17    20    1
    21    20    21    1
    22    21    22    1
    23    21    23    1
    24    21    24    1
    25    17    18   am
    26    18    19    2
    27     3     4   ar
    28     4     5   ar
    29    27    28   ar
    30    28    29   ar
    31    29    30   ar
    32    30    31    1
    33    31    32   ar
    34    32    33   ar
    35    33    34   ar
    36    34    35    1
    37    34    36   ar
    38    30    25   ar
    39    36    31   ar
    40     5     1   ar
    41    18     6    1
    42    15     9   ar
@<TRIPOS>MOLECULE
*****
 38 42 0 0 0
SMALL
GASTEIGER

@<TRIPOS>ATOM
      1 C         142.0750  138.4156  160.1666 C.ar    1  UNL1        0.1233
      2 C         141.6151  139.2472  161.3273 C.ar    1  UNL1        0.1180
      3 N         142.5376  138.9840  162.4804 N.ar    1  UNL1       -0.2233
      4 N         143.5676  137.9898  162.0324 N.ar    1  UNL1       -0.0634
      5 N         143.2817  137.6385  160.6025 N.ar    1  UNL1       -0.1287
      6 C         142.4462  139.6058  163.8424 C.3     1  UNL1        0.1834
      7 C         141.4357  138.9974  164.7691 C.3     1  UNL1        0.0386
      8 C         141.1068  139.3867  166.1799 C.3     1  UNL1        0.0324
      9 C         141.7071  140.4807  167.0124 C.ar    1  UNL1        0.0195
     10 C         142.7846  141.4554  166.6397 C.ar    1  UNL1        0.0524
     11 C         143.2441  142.4813  167.6328 C.ar    1  UNL1        0.0152
     12 C         142.6262  142.5324  168.9986 C.ar    1  UNL1        0.0102
     13 C         141.5487  141.5577  169.3713 C.ar    1  UNL1        0.0617
     14 BR        140.9308  141.6088  170.7372 Br      1  UNL1       -0.0467
     15 C         141.0892  140.5318  168.3782 C.ar    1  UNL1        0.1434
     16 F         140.0117  139.5570  168.7509 F       1  UNL1       -0.2039
     17 N         143.5278  141.5770  165.3424 N.am    1  UNL1       -0.2491
     18 C         143.3773  140.7539  164.0975 C.2     1  UNL1        0.2520
     19 O         144.1968  140.9921  162.8640 O.2     1  UNL1       -0.2724
     20 C         144.5580  142.6657  165.2822 C.3     1  UNL1        0.2016
     21 C         144.1575  144.0560  164.8864 C.3     1  UNL1        0.4160
     22 F         143.7570  145.4463  164.4905 F       1  UNL1       -0.1682
     23 F         143.1095  143.6668  163.8863 F       1  UNL1       -0.1682
     24 F         145.1642  144.6190  165.8454 F       1  UNL1       -0.1682
     25 C         139.5490  139.0992  157.1831 C.ar    1  UNL1        0.1547
     26 C         140.1842  139.1455  158.5410 C.ar    1  UNL1        0.0400
     27 C         141.4396  138.3693  158.8086 C.ar    1  UNL1        0.0241
     28 C         142.0597  137.5469  157.7182 C.ar    1  UNL1        0.0033
     29 C         141.4244  137.5006  156.3602 C.ar    1  UNL1        0.0207
     30 C         140.1691  138.2767  156.0926 C.ar    1  UNL1        0.0994
     31 N         139.5338  138.2304  154.7345 N.ar    1  UNL1       -0.2839
     32 C         139.8466  139.1397  153.5833 C.ar    1  UNL1        0.1826
     33 N         138.9803  138.7379  152.4266 N.ar    1  UNL1       -0.2280
     34 C         138.1320  137.5803  152.8629 C.ar    1  UNL1        0.0786
     35 C         137.1194  136.8624  152.0207 C.3     1  UNL1        0.0538
     36 C         138.4741  137.2667  154.2893 C.ar    1  UNL1        0.0963
     37 C         137.7538  140.8106  157.9565 C.3     1  UNL1        0.2525
     38 O         138.2936  139.8753  156.9155 O.3     1  UNL1       -0.4700
@<TRIPOS>BOND
     1    37    38    1
     2    38    25    1
     3    25    26   ar
     4    26    27   ar
     5    27     1    1
     6     1     2   ar
     7     2     3   ar
     8     3     6    1
     9     6     7    1
    10     7     8    1
    11     8     9    1
    12     9    10   ar
    13    10    11   ar
    14    11    12   ar
    15    12    13   ar
    16    13    14    1
    17    13    15   ar
    18    15    16    1
    19    10    17    1
    20    17    20    1
    21    20    21    1
    22    21    22    1
    23    21    23    1
    24    21    24    1
    25    17    18   am
    26    18    19    2
    27     3     4   ar
    28     4     5   ar
    29    27    28   ar
    30    28    29   ar
    31    29    30   ar
    32    30    31    1
    33    31    32   ar
    34    32    33   ar
    35    33    34   ar
    36    34    35    1
    37    34    36   ar
    38    30    25   ar
    39    36    31   ar
    40     5     1   ar
    41    18     6    1
    42    15     9   ar
@<TRIPOS>MOLECULE
*****
 38 42 0 0 0
SMALL
GASTEIGER

@<TRIPOS>ATOM
      1 C         142.7855  138.9358  160.9839 C.ar    1  UNL1        0.1233
      2 C         142.2608  137.8538  160.0872 C.ar    1  UNL1        0.1180
      3 N         142.8492  138.0569  158.7225 N.ar    1  UNL1       -0.2233
      4 N         143.7375  139.2644  158.7757 N.ar    1  UNL1       -0.0634
      5 N         143.6982  139.8076  160.1734 N.ar    1  UNL1       -0.1287
      6 C         142.5940  137.2026  157.5162 C.3     1  UNL1        0.1834
      7 C         143.2415  135.8496  157.5283 C.3     1  UNL1        0.0386
      8 C         143.1800  134.7741  156.4845 C.3     1  UNL1        0.0324
      9 C         142.4558  134.7858  155.1709 C.ar    1  UNL1        0.0195
     10 C         141.6142  135.8761  154.5767 C.ar    1  UNL1        0.0524
     11 C         140.9724  135.6813  153.2351 C.ar    1  UNL1        0.0152
     12 C         141.1722  134.3963  152.4876 C.ar    1  UNL1        0.0102
     13 C         142.0138  133.3061  153.0818 C.ar    1  UNL1        0.0617
     14 BR        142.2136  132.0210  152.3342 Br      1  UNL1       -0.0467
     15 C         142.6556  133.5008  154.4235 C.ar    1  UNL1        0.1434
     16 F         143.4972  132.4105  155.0177 F       1  UNL1       -0.2039
     17 N         141.2890  137.2238  155.1494 N.am    1  UNL1       -0.2491
     18 C         141.7250  137.8142  156.4575 C.2     1  UNL1        0.2520
     19 O         141.3182  139.1875  156.9030 O.2     1  UNL1       -0.2724
     20 C         140.4118  138.0966  154.3016 C.3     1  UNL1        0.2016
     21 C         139.0278  138.4441  154.7644 C.3     1  UNL1        0.4160
     22 F         137.6439  138.7914  155.2271 F       1  UNL1       -0.1682
     23 F         138.6151  137.0582  155.1632 F       1  UNL1       -0.1682
     24 F         139.2737  139.8830  154.4194 F       1  UNL1       -0.1682
     25 C         142.2110  140.6533  164.5152 C.ar    1  UNL1        0.1547
     26 C         142.5410  140.4747  163.0629 C.ar    1  UNL1        0.0400
     27 C         142.4555  139.1145  162.4362 C.ar    1  UNL1        0.0241
     28 C         142.0400  137.9331  163.2618 C.ar    1  UNL1        0.0033
     29 C         141.7100  138.1118  164.7141 C.ar    1  UNL1        0.0207
     30 C         141.7955  139.4719  165.3407 C.ar    1  UNL1        0.0994
     31 N         141.4655  139.6506  166.7931 N.ar    1  UNL1       -0.2839
     32 C         142.4134  139.4695  167.9415 C.ar    1  UNL1        0.1826
     33 N         141.6633  139.7487  169.2100 N.ar    1  UNL1       -0.2280
     34 C         140.2519  140.1024  168.8458 C.ar    1  UNL1        0.0786
     35 C         139.1552  140.4548  169.8066 C.3     1  UNL1        0.0538
     36 C         140.1296  140.0417  167.3520 C.ar    1  UNL1        0.0963
     37 C         143.5258  142.4126  165.9030 C.3     1  UNL1        0.2525
     38 O         142.2965  142.0134  165.1419 O.3     1  UNL1       -0.4700
@<TRIPOS>BOND
     1    37    38    1
     2    38    25    1
     3    25    26   ar
     4    26    27   ar
     5    27     1    1
     6     1     2   ar
     7     2     3   ar
     8     3     6    1
     9     6     7    1
    10     7     8    1
    11     8     9    1
    12     9    10   ar
    13    10    11   ar
    14    11    12   ar
    15    12    13   ar
    16    13    14    1
    17    13    15   ar
    18    15    16    1
    19    10    17    1
    20    17    20    1
    21    20    21    1
    22    21    22    1
    23    21    23    1
    24    21    24    1
    25    17    18   am
    26    18    19    2
    27     3     4   ar
    28     4     5   ar
    29    27    28   ar
    30    28    29   ar
    31    29    30   ar
    32    30    31    1
    33    31    32   ar
    34    32    33   ar
    35    33    34   ar
    36    34    35    1
    37    34    36   ar
    38    30    25   ar
    39    36    31   ar
    40     5     1   ar
    41    18     6    1
    42    15     9   ar
