@<TRIPOS>MOLECULE
*****
 36 38 0 0 0
SMALL
GASTEIGER

@<TRIPOS>ATOM
      1 C         140.1819  138.3726  162.8922 C.ar    1  UNL1        0.0504
      2 C         139.2612  138.0333  161.7577 C.ar    1  UNL1        0.0147
      3 C         139.7457  138.1367  160.3419 C.ar    1  UNL1        0.0014
      4 C         141.1510  138.5794  160.0606 C.ar    1  UNL1        0.0043
      5 C         141.6356  138.6828  158.6448 C.ar    1  UNL1        0.0208
      6 C         143.0409  139.1255  158.3635 C.ar    1  UNL1        0.1003
      7 N         143.9617  139.4648  159.4980 N.ar    1  UNL1       -0.2291
      8 C         143.4771  139.3614  160.9138 C.ar    1  UNL1        0.1322
      9 C         142.0717  138.9187  161.1951 C.ar    1  UNL1        0.0330
     10 C         141.5871  138.8153  162.6109 C.ar    1  UNL1        0.0174
     11 C         138.7504  139.2967  164.8536 C.2     1  UNL1        0.2261
     12 O         138.2880  140.4276  163.9833 O.2     1  UNL1       -0.2748
     13 N         139.6973  138.2692  164.3080 N.am    1  UNL1       -0.2839
     14 H         140.0008  137.5270  164.8792 H       1  UNL1        0.1549
     15 C         138.2658  139.1933  166.2694 C.3     1  UNL1        0.0854
     16 C         139.1529  139.6254  167.3991 C.3     1  UNL1        0.0096
     17 C         140.4019  140.4061  167.1156 C.3     1  UNL1        0.0005
     18 C         141.7398  139.8458  167.4978 C.3     1  UNL1        0.0005
     19 C         142.4419  140.3505  168.7235 C.3     1  UNL1        0.0096
     20 C         141.7649  141.3447  169.6197 C.3     1  UNL1        0.0871
     21 O         140.6259  141.7850  171.9130 O.2     1  UNL1       -0.2730
     22 C         140.9154  140.8691  170.7608 C.2     1  UNL1        0.2443
     23 N         140.3553  139.4776  170.7498 N.am    1  UNL1       -0.1970
     24 O         139.5058  139.0020  171.8909 O.3     1  UNL1       -0.2952
     25 H         140.5453  138.8765  169.9936 H       1  UNL1        0.1822
     26 H         139.4179  139.7116  172.5463 H       1  UNL1        0.2414
     27 N         144.3978  139.7006  162.0483 N.pl3   1  UNL1       -0.2962
     28 H         145.0443  139.0334  162.3740 H       1  UNL1        0.1537
     29 C         144.3335  141.0566  162.6866 C.ar    1  UNL1        0.0780
     30 C         144.5518  142.2871  161.8572 C.ar    1  UNL1        0.0170
     31 C         144.4876  143.6430  162.4955 C.ar    1  UNL1        0.0023
     32 C         144.2050  143.7683  163.9633 C.ar    1  UNL1        0.0138
     33 C         143.9867  142.5378  164.7928 C.ar    1  UNL1        0.0863
     34 CL        143.7042  142.6631  166.2606 Cl      1  UNL1       -0.0799
     35 C         144.0510  141.1819  164.1545 C.ar    1  UNL1        0.1639
     36 F         143.8327  139.9513  164.9840 F       1  UNL1       -0.2020
@<TRIPOS>BOND
     1    21    22    2
     2    22    20    1
     3    20    19    1
     4    19    18    1
     5    18    17    1
     6    17    16    1
     7    16    15    1
     8    15    11    1
     9    11    12    2
    10    11    13   am
    11    13     1    1
    12     1     2   ar
    13     2     3   ar
    14     3     4   ar
    15     4     5   ar
    16     5     6   ar
    17     6     7   ar
    18     7     8   ar
    19     8    27    1
    20    27    29    1
    21    29    30   ar
    22    30    31   ar
    23    31    32   ar
    24    32    33   ar
    25    33    34    1
    26    33    35   ar
    27    35    36    1
    28     8     9   ar
    29     9    10   ar
    30    22    23   am
    31    23    24    1
    32    10     1   ar
    33     9     4   ar
    34    35    29   ar
    35    13    14    1
    36    27    28    1
    37    23    25    1
    38    24    26    1
@<TRIPOS>MOLECULE
*****
 36 38 0 0 0
SMALL
GASTEIGER

@<TRIPOS>ATOM
      1 C         141.3743  139.3448  163.7264 C.ar    1  UNL1        0.0504
      2 C         140.8410  138.0772  163.1275 C.ar    1  UNL1        0.0147
      3 C         139.7301  137.3349  163.8093 C.ar    1  UNL1        0.0014
      4 C         139.1525  137.8601  165.0901 C.ar    1  UNL1        0.0043
      5 C         138.0417  137.1177  165.7719 C.ar    1  UNL1        0.0208
      6 C         137.4641  137.6429  167.0527 C.ar    1  UNL1        0.1003
      7 N         137.9974  138.9105  167.6518 N.ar    1  UNL1       -0.2291
      8 C         139.1083  139.6529  166.9700 C.ar    1  UNL1        0.1322
      9 C         139.6858  139.1276  165.6891 C.ar    1  UNL1        0.0330
     10 C         140.7967  139.8700  165.0073 C.ar    1  UNL1        0.0174
     11 C         143.8917  139.9623  163.5504 C.2     1  UNL1        0.2261
     12 O         144.1875  139.0951  164.7381 O.2     1  UNL1       -0.2748
     13 N         142.4851  140.0872  163.0446 N.am    1  UNL1       -0.2839
     14 H         142.2910  140.6563  162.2651 H       1  UNL1        0.1549
     15 C         145.0026  140.7047  162.8686 C.3     1  UNL1        0.0854
     16 C         145.4452  142.0388  163.3923 C.3     1  UNL1        0.0096
     17 C         144.5665  143.2420  163.2181 C.3     1  UNL1        0.0005
     18 C         143.8546  143.8283  164.4010 C.3     1  UNL1        0.0005
     19 C         142.5103  143.2995  164.8052 C.3     1  UNL1        0.0096
     20 C         141.3641  143.3471  163.8387 C.3     1  UNL1        0.0871
     21 O         139.4598  144.9798  164.5153 O.2     1  UNL1       -0.2730
     22 C         140.6155  144.6293  163.6256 C.2     1  UNL1        0.2443
     23 N         141.0226  145.5611  162.5228 N.am    1  UNL1       -0.1970
     24 O         140.2739  146.8433  162.3098 O.3     1  UNL1       -0.2952
     25 H         141.7811  145.3311  161.9389 H       1  UNL1        0.1822
     26 H         139.5625  146.9151  162.9652 H       1  UNL1        0.2414
     27 N         139.6415  140.9205  167.5689 N.pl3   1  UNL1       -0.2962
     28 H         139.2246  141.7839  167.3457 H       1  UNL1        0.1537
     29 C         140.8102  140.8725  168.5082 C.ar    1  UNL1        0.0780
     30 C         141.4518  139.5581  168.8406 C.ar    1  UNL1        0.0170
     31 C         142.6203  139.5102  169.7798 C.ar    1  UNL1        0.0023
     32 C         143.1473  140.7767  170.3866 C.ar    1  UNL1        0.0138
     33 C         142.5057  142.0912  170.0541 C.ar    1  UNL1        0.0863
     34 CL        143.0327  143.3577  170.6609 Cl      1  UNL1       -0.0799
     35 C         141.3371  142.1391  169.1150 C.ar    1  UNL1        0.1639
     36 F         140.6955  143.4535  168.7825 F       1  UNL1       -0.2020
@<TRIPOS>BOND
     1    21    22    2
     2    22    20    1
     3    20    19    1
     4    19    18    1
     5    18    17    1
     6    17    16    1
     7    16    15    1
     8    15    11    1
     9    11    12    2
    10    11    13   am
    11    13     1    1
    12     1     2   ar
    13     2     3   ar
    14     3     4   ar
    15     4     5   ar
    16     5     6   ar
    17     6     7   ar
    18     7     8   ar
    19     8    27    1
    20    27    29    1
    21    29    30   ar
    22    30    31   ar
    23    31    32   ar
    24    32    33   ar
    25    33    34    1
    26    33    35   ar
    27    35    36    1
    28     8     9   ar
    29     9    10   ar
    30    22    23   am
    31    23    24    1
    32    10     1   ar
    33     9     4   ar
    34    35    29   ar
    35    13    14    1
    36    27    28    1
    37    23    25    1
    38    24    26    1
@<TRIPOS>MOLECULE
*****
 36 38 0 0 0
SMALL
GASTEIGER

@<TRIPOS>ATOM
      1 C         142.3927  142.8142  164.8383 C.ar    1  UNL1        0.0504
      2 C         143.2226  143.9080  164.2344 C.ar    1  UNL1        0.0147
      3 C         142.5756  144.9519  163.3733 C.ar    1  UNL1        0.0014
      4 C         141.0987  144.9021  163.1160 C.ar    1  UNL1        0.0043
      5 C         140.4518  145.9460  162.2548 C.ar    1  UNL1        0.0208
      6 C         138.9749  145.8961  161.9976 C.ar    1  UNL1        0.1003
      7 N         138.1448  144.8023  162.6015 N.ar    1  UNL1       -0.2291
      8 C         138.7918  143.7583  163.4627 C.ar    1  UNL1        0.1322
      9 C         140.2688  143.8083  163.7199 C.ar    1  UNL1        0.0330
     10 C         140.9158  142.7643  164.5811 C.ar    1  UNL1        0.0174
     11 C         143.1859  140.3658  165.1935 C.2     1  UNL1        0.2261
     12 O         142.6852  140.0052  163.8263 O.2     1  UNL1       -0.2748
     13 N         143.0397  141.7703  165.6995 N.am    1  UNL1       -0.2839
     14 H         143.3683  142.0069  166.5969 H       1  UNL1        0.1549
     15 C         143.8329  139.3219  166.0547 C.3     1  UNL1        0.0854
     16 C         143.0664  138.7018  167.1852 C.3     1  UNL1        0.0096
     17 C         142.5190  139.5653  168.2828 C.3     1  UNL1        0.0005
     18 C         141.0522  139.8750  168.3326 C.3     1  UNL1        0.0005
     19 C         140.5879  141.3005  168.3826 C.3     1  UNL1        0.0096
     20 C         141.2920  142.2881  169.2652 C.3     1  UNL1        0.0871
     21 O         140.0326  142.5340  171.5244 O.2     1  UNL1       -0.2730
     22 C         140.5057  143.1257  170.2297 C.2     1  UNL1        0.2443
     23 N         140.1926  144.5550  169.8996 N.am    1  UNL1       -0.1970
     24 O         139.4064  145.3927  170.8640 O.3     1  UNL1       -0.2952
     25 H         140.5031  144.9434  169.0498 H       1  UNL1        0.1822
     26 H         139.1806  144.8618  171.6439 H       1  UNL1        0.2414
     27 N         137.9619  142.6645  164.0666 N.pl3   1  UNL1       -0.2962
     28 H         137.3613  142.8619  164.8213 H       1  UNL1        0.1537
     29 C         138.0471  141.2699  163.5206 C.ar    1  UNL1        0.0780
     30 C         137.7146  141.0061  162.0820 C.ar    1  UNL1        0.0170
     31 C         137.7998  139.6116  161.5361 C.ar    1  UNL1        0.0023
     32 C         138.2175  138.4809  162.4289 C.ar    1  UNL1        0.0138
     33 C         138.5499  138.7447  163.8676 C.ar    1  UNL1        0.0863
     34 CL        138.9675  137.6140  164.7604 Cl      1  UNL1       -0.0799
     35 C         138.4647  140.1393  164.4135 C.ar    1  UNL1        0.1639
     36 F         138.7972  140.4032  165.8522 F       1  UNL1       -0.2020
@<TRIPOS>BOND
     1    21    22    2
     2    22    20    1
     3    20    19    1
     4    19    18    1
     5    18    17    1
     6    17    16    1
     7    16    15    1
     8    15    11    1
     9    11    12    2
    10    11    13   am
    11    13     1    1
    12     1     2   ar
    13     2     3   ar
    14     3     4   ar
    15     4     5   ar
    16     5     6   ar
    17     6     7   ar
    18     7     8   ar
    19     8    27    1
    20    27    29    1
    21    29    30   ar
    22    30    31   ar
    23    31    32   ar
    24    32    33   ar
    25    33    34    1
    26    33    35   ar
    27    35    36    1
    28     8     9   ar
    29     9    10   ar
    30    22    23   am
    31    23    24    1
    32    10     1   ar
    33     9     4   ar
    34    35    29   ar
    35    13    14    1
    36    27    28    1
    37    23    25    1
    38    24    26    1
@<TRIPOS>MOLECULE
*****
 36 38 0 0 0
SMALL
GASTEIGER

@<TRIPOS>ATOM
      1 C         138.9918  138.7036  165.4514 C.ar    1  UNL1        0.0504
      2 C         137.9771  138.5418  166.5441 C.ar    1  UNL1        0.0147
      3 C         138.1884  139.2122  167.8692 C.ar    1  UNL1        0.0014
      4 C         139.4145  140.0445  168.1016 C.ar    1  UNL1        0.0043
      5 C         139.6259  140.7149  169.4266 C.ar    1  UNL1        0.0208
      6 C         140.8519  141.5472  169.6590 C.ar    1  UNL1        0.1003
      7 N         141.8667  141.7090  168.5663 N.ar    1  UNL1       -0.2291
      8 C         141.6554  141.0386  167.2412 C.ar    1  UNL1        0.1322
      9 C         140.4292  140.2063  167.0088 C.ar    1  UNL1        0.0330
     10 C         140.2179  139.5359  165.6837 C.ar    1  UNL1        0.0174
     11 C         138.2899  138.8287  162.9531 C.2     1  UNL1        0.2261
     12 O         138.0106  140.2946  163.1049 O.2     1  UNL1       -0.2748
     13 N         138.7805  138.0332  164.1263 N.am    1  UNL1       -0.2839
     14 H         138.9638  137.0710  164.0266 H       1  UNL1        0.1549
     15 C         138.0785  138.1582  161.6280 C.3     1  UNL1        0.0854
     16 C         139.1765  138.1542  160.6059 C.3     1  UNL1        0.0096
     17 C         140.5903  138.4323  161.0229 C.3     1  UNL1        0.0005
     18 C         141.1841  139.7917  160.8010 C.3     1  UNL1        0.0005
     19 C         141.7353  140.5677  161.9602 C.3     1  UNL1        0.0096
     20 C         142.9281  141.4569  161.7683 C.3     1  UNL1        0.0871
     21 O         144.2376  140.0832  163.5426 O.2     1  UNL1       -0.2730
     22 C         144.1821  141.2093  162.5532 C.2     1  UNL1        0.2443
     23 N         145.3807  142.0877  162.3487 N.am    1  UNL1       -0.1970
     24 O         146.6347  141.8401  163.1335 O.3     1  UNL1       -0.2952
     25 H         145.3442  142.8268  161.6993 H       1  UNL1        0.1822
     26 H         146.5027  141.0811  163.7230 H       1  UNL1        0.2414
     27 N         142.6701  141.2004  166.1484 N.pl3   1  UNL1       -0.2962
     28 H         143.2311  140.4370  165.8806 H       1  UNL1        0.1537
     29 C         142.8302  142.5254  165.4638 C.ar    1  UNL1        0.0780
     30 C         144.1461  143.2435  165.5178 C.ar    1  UNL1        0.0170
     31 C         144.3061  144.5684  164.8331 C.ar    1  UNL1        0.0023
     32 C         143.1503  145.1754  164.0944 C.ar    1  UNL1        0.0138
     33 C         141.8344  144.4574  164.0404 C.ar    1  UNL1        0.0863
     34 CL        140.6786  145.0643  163.3017 Cl      1  UNL1       -0.0799
     35 C         141.6744  143.1324  164.7250 C.ar    1  UNL1        0.1639
     36 F         140.3585  142.4143  164.6710 F       1  UNL1       -0.2020
@<TRIPOS>BOND
     1    21    22    2
     2    22    20    1
     3    20    19    1
     4    19    18    1
     5    18    17    1
     6    17    16    1
     7    16    15    1
     8    15    11    1
     9    11    12    2
    10    11    13   am
    11    13     1    1
    12     1     2   ar
    13     2     3   ar
    14     3     4   ar
    15     4     5   ar
    16     5     6   ar
    17     6     7   ar
    18     7     8   ar
    19     8    27    1
    20    27    29    1
    21    29    30   ar
    22    30    31   ar
    23    31    32   ar
    24    32    33   ar
    25    33    34    1
    26    33    35   ar
    27    35    36    1
    28     8     9   ar
    29     9    10   ar
    30    22    23   am
    31    23    24    1
    32    10     1   ar
    33     9     4   ar
    34    35    29   ar
    35    13    14    1
    36    27    28    1
    37    23    25    1
    38    24    26    1
@<TRIPOS>MOLECULE
*****
 36 38 0 0 0
SMALL
GASTEIGER

@<TRIPOS>ATOM
      1 C         142.3161  143.0746  165.2461 C.ar    1  UNL1        0.0504
      2 C         143.1597  144.1535  164.6344 C.ar    1  UNL1        0.0147
      3 C         142.5625  145.0936  163.6296 C.ar    1  UNL1        0.0014
      4 C         141.1216  144.9547  163.2366 C.ar    1  UNL1        0.0043
      5 C         140.5243  145.8948  162.2318 C.ar    1  UNL1        0.0208
      6 C         139.0834  145.7560  161.8388 C.ar    1  UNL1        0.1003
      7 N         138.2397  144.6770  162.4505 N.ar    1  UNL1       -0.2291
      8 C         138.8370  143.7370  163.4553 C.ar    1  UNL1        0.1322
      9 C         140.2780  143.8758  163.8483 C.ar    1  UNL1        0.0330
     10 C         140.8752  142.9358  164.8531 C.ar    1  UNL1        0.0174
     11 C         142.2752  141.9729  167.5986 C.2     1  UNL1        0.2261
     12 O         141.0396  142.7512  167.9417 O.2     1  UNL1       -0.2748
     13 N         142.9134  142.1346  166.2509 N.am    1  UNL1       -0.2839
     14 H         143.7243  141.6237  166.0257 H       1  UNL1        0.1549
     15 C         142.8725  141.0328  168.6034 C.3     1  UNL1        0.0854
     16 C         142.5825  139.5634  168.5206 C.3     1  UNL1        0.0096
     17 C         143.1138  138.7576  167.3724 C.3     1  UNL1        0.0005
     18 C         142.3424  138.6830  166.0881 C.3     1  UNL1        0.0005
     19 C         143.0708  138.6126  164.7787 C.3     1  UNL1        0.0096
     20 C         144.3597  139.3579  164.5965 C.3     1  UNL1        0.0871
     21 O         143.3013  140.7135  162.6491 O.2     1  UNL1       -0.2730
     22 C         144.4676  140.4241  163.5469 C.2     1  UNL1        0.2443
     23 N         145.7418  141.2009  163.3951 N.am    1  UNL1       -0.1970
     24 O         145.8497  142.2671  162.3456 O.3     1  UNL1       -0.2952
     25 H         146.5073  141.0110  163.9844 H       1  UNL1        0.1822
     26 H         145.0139  142.3254  161.8567 H       1  UNL1        0.2414
     27 N         137.9934  142.6581  164.0670 N.pl3   1  UNL1       -0.2962
     28 H         137.3834  142.8717  164.8097 H       1  UNL1        0.1537
     29 C         138.0791  141.2536  163.5472 C.ar    1  UNL1        0.0780
     30 C         137.7140  140.9574  162.1228 C.ar    1  UNL1        0.0170
     31 C         137.7997  139.5530  161.6031 C.ar    1  UNL1        0.0023
     32 C         138.2506  138.4447  162.5078 C.ar    1  UNL1        0.0138
     33 C         138.6157  138.7408  163.9322 C.ar    1  UNL1        0.0863
     34 CL        139.0665  137.6326  164.8369 Cl      1  UNL1       -0.0799
     35 C         138.5299  140.1453  164.4519 C.ar    1  UNL1        0.1639
     36 F         138.8950  140.4415  165.8764 F       1  UNL1       -0.2020
@<TRIPOS>BOND
     1    21    22    2
     2    22    20    1
     3    20    19    1
     4    19    18    1
     5    18    17    1
     6    17    16    1
     7    16    15    1
     8    15    11    1
     9    11    12    2
    10    11    13   am
    11    13     1    1
    12     1     2   ar
    13     2     3   ar
    14     3     4   ar
    15     4     5   ar
    16     5     6   ar
    17     6     7   ar
    18     7     8   ar
    19     8    27    1
    20    27    29    1
    21    29    30   ar
    22    30    31   ar
    23    31    32   ar
    24    32    33   ar
    25    33    34    1
    26    33    35   ar
    27    35    36    1
    28     8     9   ar
    29     9    10   ar
    30    22    23   am
    31    23    24    1
    32    10     1   ar
    33     9     4   ar
    34    35    29   ar
    35    13    14    1
    36    27    28    1
    37    23    25    1
    38    24    26    1
@<TRIPOS>MOLECULE
*****
 36 38 0 0 0
SMALL
GASTEIGER

@<TRIPOS>ATOM
      1 C         142.9728  141.6719  166.5358 C.ar    1  UNL1        0.0504
      2 C         143.2370  142.3768  167.8332 C.ar    1  UNL1        0.0147
      3 C         142.2843  142.2179  168.9807 C.ar    1  UNL1        0.0014
      4 C         141.0672  141.3540  168.8310 C.ar    1  UNL1        0.0043
      5 C         140.1144  141.1950  169.9785 C.ar    1  UNL1        0.0208
      6 C         138.8974  140.3311  169.8287 C.ar    1  UNL1        0.1003
      7 N         138.6331  139.6261  168.5313 N.ar    1  UNL1       -0.2291
      8 C         139.5859  139.7850  167.3838 C.ar    1  UNL1        0.1322
      9 C         140.8030  140.6490  167.5336 C.ar    1  UNL1        0.0330
     10 C         141.7558  140.8080  166.3860 C.ar    1  UNL1        0.0174
     11 C         144.4770  140.6187  164.6979 C.2     1  UNL1        0.2261
     12 O         144.0757  139.2476  165.1551 O.2     1  UNL1       -0.2748
     13 N         143.9256  141.8308  165.3882 N.am    1  UNL1       -0.2839
     14 H         144.1890  142.7307  165.0882 H       1  UNL1        0.1549
     15 C         145.4298  140.7777  163.5503 C.3     1  UNL1        0.0854
     16 C         144.9488  141.3500  162.2498 C.3     1  UNL1        0.0096
     17 C         143.5383  141.8447  162.1242 C.3     1  UNL1        0.0005
     18 C         143.2719  143.3058  161.9143 C.3     1  UNL1        0.0005
     19 C         143.9895  144.3263  162.7471 C.3     1  UNL1        0.0096
     20 C         143.2308  145.1430  163.7509 C.3     1  UNL1        0.0871
     21 O         141.0452  144.1453  164.7397 O.2     1  UNL1       -0.2730
     22 C         141.7326  145.0809  163.7898 C.2     1  UNL1        0.2443
     23 N         140.9219  145.9544  162.8790 N.am    1  UNL1       -0.1970
     24 O         139.4237  145.8923  162.9179 O.3     1  UNL1       -0.2952
     25 H         141.3731  146.5685  162.2556 H       1  UNL1        0.1822
     26 H         139.1441  145.2422  163.5813 H       1  UNL1        0.2414
     27 N         139.3217  139.0801  166.0864 N.pl3   1  UNL1       -0.2962
     28 H         139.5461  138.1264  165.9898 H       1  UNL1        0.1537
     29 C         138.7155  139.8282  164.9362 C.ar    1  UNL1        0.0780
     30 C         138.3501  141.2747  165.0915 C.ar    1  UNL1        0.0170
     31 C         137.7440  142.0227  163.9413 C.ar    1  UNL1        0.0023
     32 C         137.5033  141.3243  162.6358 C.ar    1  UNL1        0.0138
     33 C         137.8687  139.8778  162.4805 C.ar    1  UNL1        0.0863
     34 CL        137.6279  139.1794  161.1751 Cl      1  UNL1       -0.0799
     35 C         138.4748  139.1298  163.6307 C.ar    1  UNL1        0.1639
     36 F         138.8402  137.6832  163.4755 F       1  UNL1       -0.2020
@<TRIPOS>BOND
     1    21    22    2
     2    22    20    1
     3    20    19    1
     4    19    18    1
     5    18    17    1
     6    17    16    1
     7    16    15    1
     8    15    11    1
     9    11    12    2
    10    11    13   am
    11    13     1    1
    12     1     2   ar
    13     2     3   ar
    14     3     4   ar
    15     4     5   ar
    16     5     6   ar
    17     6     7   ar
    18     7     8   ar
    19     8    27    1
    20    27    29    1
    21    29    30   ar
    22    30    31   ar
    23    31    32   ar
    24    32    33   ar
    25    33    34    1
    26    33    35   ar
    27    35    36    1
    28     8     9   ar
    29     9    10   ar
    30    22    23   am
    31    23    24    1
    32    10     1   ar
    33     9     4   ar
    34    35    29   ar
    35    13    14    1
    36    27    28    1
    37    23    25    1
    38    24    26    1
@<TRIPOS>MOLECULE
*****
 36 38 0 0 0
SMALL
GASTEIGER

@<TRIPOS>ATOM
      1 C         138.1876  141.8411  163.9720 C.ar    1  UNL1        0.0504
      2 C         137.6267  143.1299  164.4959 C.ar    1  UNL1        0.0147
      3 C         138.0348  144.4329  163.8750 C.ar    1  UNL1        0.0014
      4 C         139.0039  144.4472  162.7302 C.ar    1  UNL1        0.0043
      5 C         139.4121  145.7502  162.1093 C.ar    1  UNL1        0.0208
      6 C         140.3811  145.7645  160.9644 C.ar    1  UNL1        0.1003
      7 N         140.9421  144.4758  160.4405 N.ar    1  UNL1       -0.2291
      8 C         140.5339  143.1727  161.0614 C.ar    1  UNL1        0.1322
      9 C         139.5648  143.1585  162.2062 C.ar    1  UNL1        0.0330
     10 C         139.1566  141.8554  162.8271 C.ar    1  UNL1        0.0174
     11 C         138.5384  139.9969  165.7680 C.2     1  UNL1        0.2261
     12 O         139.7056  140.7588  166.3223 O.2     1  UNL1       -0.2748
     13 N         137.7794  140.5381  164.5929 N.am    1  UNL1       -0.2839
     14 H         137.0133  140.0381  164.2291 H       1  UNL1        0.1549
     15 C         138.1302  138.6939  166.3889 C.3     1  UNL1        0.0854
     16 C         138.5321  137.3989  165.7473 C.3     1  UNL1        0.0096
     17 C         139.4295  137.4042  164.5453 C.3     1  UNL1        0.0005
     18 C         140.8906  137.1018  164.6989 C.3     1  UNL1        0.0005
     19 C         141.9006  138.2052  164.5875 C.3     1  UNL1        0.0096
     20 C         143.0005  138.3204  165.6010 C.3     1  UNL1        0.0871
     21 O         143.0992  138.8606  168.1404 O.2     1  UNL1       -0.2730
     22 C         142.8846  139.3073  166.7246 C.2     1  UNL1        0.2443
     23 N         142.5543  140.7410  166.4324 N.am    1  UNL1       -0.1970
     24 O         142.4384  141.7280  167.5560 O.3     1  UNL1       -0.2952
     25 H         142.4135  141.0342  165.5032 H       1  UNL1        0.1822
     26 H         142.6053  141.2788  168.3994 H       1  UNL1        0.2414
     27 N         141.0948  141.8840  160.5374 N.pl3   1  UNL1       -0.2962
     28 H         140.7036  141.4666  159.7362 H       1  UNL1        0.1537
     29 C         142.2517  141.2313  161.2343 C.ar    1  UNL1        0.0780
     30 C         143.0628  142.0073  162.2292 C.ar    1  UNL1        0.0170
     31 C         144.2196  141.3546  162.9259 C.ar    1  UNL1        0.0023
     32 C         144.5654  139.9257  162.6278 C.ar    1  UNL1        0.0138
     33 C         143.7544  139.1497  161.6329 C.ar    1  UNL1        0.0863
     34 CL        144.1002  137.7208  161.3348 Cl      1  UNL1       -0.0799
     35 C         142.5975  139.8024  160.9362 C.ar    1  UNL1        0.1639
     36 F         141.7864  139.0263  159.9412 F       1  UNL1       -0.2020
@<TRIPOS>BOND
     1    21    22    2
     2    22    20    1
     3    20    19    1
     4    19    18    1
     5    18    17    1
     6    17    16    1
     7    16    15    1
     8    15    11    1
     9    11    12    2
    10    11    13   am
    11    13     1    1
    12     1     2   ar
    13     2     3   ar
    14     3     4   ar
    15     4     5   ar
    16     5     6   ar
    17     6     7   ar
    18     7     8   ar
    19     8    27    1
    20    27    29    1
    21    29    30   ar
    22    30    31   ar
    23    31    32   ar
    24    32    33   ar
    25    33    34    1
    26    33    35   ar
    27    35    36    1
    28     8     9   ar
    29     9    10   ar
    30    22    23   am
    31    23    24    1
    32    10     1   ar
    33     9     4   ar
    34    35    29   ar
    35    13    14    1
    36    27    28    1
    37    23    25    1
    38    24    26    1
@<TRIPOS>MOLECULE
*****
 36 38 0 0 0
SMALL
GASTEIGER

@<TRIPOS>ATOM
      1 C         143.0998  142.7585  163.5480 C.ar    1  UNL1        0.0504
      2 C         144.4436  142.3045  163.0604 C.ar    1  UNL1        0.0147
      3 C         145.0494  141.0421  163.5983 C.ar    1  UNL1        0.0014
      4 C         144.3113  140.2337  164.6237 C.ar    1  UNL1        0.0043
      5 C         144.9171  138.9712  165.1616 C.ar    1  UNL1        0.0208
      6 C         144.1790  138.1628  166.1871 C.ar    1  UNL1        0.1003
      7 N         142.8350  138.6168  166.6747 N.ar    1  UNL1       -0.2291
      8 C         142.2293  139.8793  166.1369 C.ar    1  UNL1        0.1322
      9 C         142.9674  140.6877  165.1113 C.ar    1  UNL1        0.0330
     10 C         142.3617  141.9501  164.5735 C.ar    1  UNL1        0.0174
     11 C         141.4010  143.9510  161.9852 C.2     1  UNL1        0.2261
     12 O         140.9138  142.6185  161.4981 O.2     1  UNL1       -0.2748
     13 N         142.4940  144.0210  163.0101 N.am    1  UNL1       -0.2839
     14 H         142.8138  144.8955  163.3298 H       1  UNL1        0.1549
     15 C         140.7952  145.2134  161.4474 C.3     1  UNL1        0.0854
     16 C         139.5121  145.7344  162.0238 C.3     1  UNL1        0.0096
     17 C         138.9701  145.1519  163.2954 C.3     1  UNL1        0.0005
     18 C         137.7507  144.2791  163.2605 C.3     1  UNL1        0.0005
     19 C         137.5934  143.1701  164.2582 C.3     1  UNL1        0.0096
     20 C         138.6551  142.1179  164.3837 C.3     1  UNL1        0.0871
     21 O         139.5319  139.7358  163.8295 O.2     1  UNL1       -0.2730
     22 C         138.5352  140.8360  163.6141 C.2     1  UNL1        0.2443
     23 N         137.4187  140.6542  162.6291 N.am    1  UNL1       -0.1970
     24 O         137.2987  139.3723  161.8594 O.3     1  UNL1       -0.2952
     25 H         136.7645  141.3763  162.4877 H       1  UNL1        0.1822
     26 H         138.0167  138.7727  162.1161 H       1  UNL1        0.2414
     27 N         140.8854  140.3333  166.6245 N.pl3   1  UNL1       -0.2962
     28 H         140.1031  140.2839  166.0287 H       1  UNL1        0.1537
     29 C         140.7333  140.8626  168.0198 C.ar    1  UNL1        0.0780
     30 C         140.7386  139.9180  169.1850 C.ar    1  UNL1        0.0170
     31 C         140.5865  140.4473  170.5802 C.ar    1  UNL1        0.0023
     32 C         140.4292  141.9212  170.8102 C.ar    1  UNL1        0.0138
     33 C         140.4239  142.8658  169.6450 C.ar    1  UNL1        0.0863
     34 CL        140.2665  144.3397  169.8750 Cl      1  UNL1       -0.0799
     35 C         140.5759  142.3365  168.2498 C.ar    1  UNL1        0.1639
     36 F         140.5707  143.2811  167.0845 F       1  UNL1       -0.2020
@<TRIPOS>BOND
     1    21    22    2
     2    22    20    1
     3    20    19    1
     4    19    18    1
     5    18    17    1
     6    17    16    1
     7    16    15    1
     8    15    11    1
     9    11    12    2
    10    11    13   am
    11    13     1    1
    12     1     2   ar
    13     2     3   ar
    14     3     4   ar
    15     4     5   ar
    16     5     6   ar
    17     6     7   ar
    18     7     8   ar
    19     8    27    1
    20    27    29    1
    21    29    30   ar
    22    30    31   ar
    23    31    32   ar
    24    32    33   ar
    25    33    34    1
    26    33    35   ar
    27    35    36    1
    28     8     9   ar
    29     9    10   ar
    30    22    23   am
    31    23    24    1
    32    10     1   ar
    33     9     4   ar
    34    35    29   ar
    35    13    14    1
    36    27    28    1
    37    23    25    1
    38    24    26    1
@<TRIPOS>MOLECULE
*****
 36 38 0 0 0
SMALL
GASTEIGER

@<TRIPOS>ATOM
      1 C         140.1033  138.3000  162.4599 C.ar    1  UNL1        0.0504
      2 C         139.1318  138.1899  161.3224 C.ar    1  UNL1        0.0147
      3 C         139.6083  138.3583  159.9101 C.ar    1  UNL1        0.0014
      4 C         141.0563  138.6368  159.6352 C.ar    1  UNL1        0.0043
      5 C         141.5328  138.8052  158.2229 C.ar    1  UNL1        0.0208
      6 C         142.9808  139.0837  157.9481 C.ar    1  UNL1        0.1003
      7 N         143.9524  139.1938  159.0856 N.ar    1  UNL1       -0.2291
      8 C         143.4760  139.0254  160.4979 C.ar    1  UNL1        0.1322
      9 C         142.0278  138.7469  160.7727 C.ar    1  UNL1        0.0330
     10 C         141.5514  138.5785  162.1850 C.ar    1  UNL1        0.0174
     11 C         138.7891  139.1979  164.5132 C.2     1  UNL1        0.2261
     12 O         138.4277  140.4327  163.7420 O.2     1  UNL1       -0.2748
     13 N         139.6269  138.1316  163.8722 N.am    1  UNL1       -0.2839
     14 H         139.8640  137.3212  164.3784 H       1  UNL1        0.1549
     15 C         138.3126  139.0295  165.9255 C.3     1  UNL1        0.0854
     16 C         139.1385  139.5528  167.0631 C.3     1  UNL1        0.0096
     17 C         140.5582  139.9755  166.8269 C.3     1  UNL1        0.0005
     18 C         141.1592  141.0774  167.6482 C.3     1  UNL1        0.0005
     19 C         140.6366  142.4777  167.5219 C.3     1  UNL1        0.0096
     20 C         140.3659  143.2911  168.7528 C.3     1  UNL1        0.0871
     21 O         139.4595  141.8788  170.7363 O.2     1  UNL1       -0.2730
     22 C         140.5598  142.6839  170.1106 C.2     1  UNL1        0.2443
     23 N         141.8539  142.8818  170.8428 N.am    1  UNL1       -0.1970
     24 O         142.0478  142.2746  172.2007 O.3     1  UNL1       -0.2952
     25 H         142.5760  143.4102  170.4322 H       1  UNL1        0.1822
     26 H         141.2468  141.7907  172.4558 H       1  UNL1        0.2414
     27 N         144.4475  139.1355  161.6354 N.pl3   1  UNL1       -0.2962
     28 H         145.1538  138.4587  161.7468 H       1  UNL1        0.1537
     29 C         144.3431  140.2769  162.6032 C.ar    1  UNL1        0.0780
     30 C         144.1639  140.0047  164.0673 C.ar    1  UNL1        0.0170
     31 C         144.0594  141.1460  165.0350 C.ar    1  UNL1        0.0023
     32 C         144.1342  142.5595  164.5385 C.ar    1  UNL1        0.0138
     33 C         144.3134  142.8317  163.0744 C.ar    1  UNL1        0.0863
     34 CL        144.3882  144.2452  162.5779 Cl      1  UNL1       -0.0799
     35 C         144.4178  141.6904  162.1067 C.ar    1  UNL1        0.1639
     36 F         144.5971  141.9625  160.6425 F       1  UNL1       -0.2020
@<TRIPOS>BOND
     1    21    22    2
     2    22    20    1
     3    20    19    1
     4    19    18    1
     5    18    17    1
     6    17    16    1
     7    16    15    1
     8    15    11    1
     9    11    12    2
    10    11    13   am
    11    13     1    1
    12     1     2   ar
    13     2     3   ar
    14     3     4   ar
    15     4     5   ar
    16     5     6   ar
    17     6     7   ar
    18     7     8   ar
    19     8    27    1
    20    27    29    1
    21    29    30   ar
    22    30    31   ar
    23    31    32   ar
    24    32    33   ar
    25    33    34    1
    26    33    35   ar
    27    35    36    1
    28     8     9   ar
    29     9    10   ar
    30    22    23   am
    31    23    24    1
    32    10     1   ar
    33     9     4   ar
    34    35    29   ar
    35    13    14    1
    36    27    28    1
    37    23    25    1
    38    24    26    1
