@<TRIPOS>MOLECULE
*****
 39 43 0 0 0
SMALL
GASTEIGER

@<TRIPOS>ATOM
      1 C         139.5178  139.9748  167.7942 C.ar    1  UNL1        0.1334
      2 C         140.4421  140.8178  166.9663 C.ar    1  UNL1        0.0488
      3 C         141.5181  141.6248  167.6304 C.ar    1  UNL1        0.0533
      4 C         141.6698  141.5888  169.1224 C.ar    1  UNL1        0.0854
      5 C         140.7455  140.7459  169.9501 C.ar    1  UNL1        0.1060
      6 N         139.6696  139.9389  169.2860 N.ar    1  UNL1       -0.2288
      7 C         142.7457  142.3958  169.7864 C.2     1  UNL1        0.2455
      8 N         142.5192  142.9654  171.1555 N.am    1  UNL1       -0.3252
      9 O         144.0483  142.6333  169.0814 O.2     1  UNL1       -0.2703
     10 H         141.6643  142.8095  171.6182 H       1  UNL1        0.1453
     11 H         143.2254  143.4950  171.5913 H       1  UNL1        0.1453
     12 N         138.4418  139.1678  167.1301 N.pl3   1  UNL1       -0.2979
     13 H         137.6974  138.8065  167.6635 H       1  UNL1        0.1536
     14 C         137.7811  140.2273  159.3800 C.3     1  UNL1        0.0950
     15 C         138.0094  139.7655  160.7887 C.ar    1  UNL1        0.2062
     16 N         137.7293  140.5563  162.0322 N.ar    1  UNL1       -0.2120
     17 C         138.1047  139.7113  163.2133 C.ar    1  UNL1        0.1198
     18 C         138.0464  139.9678  164.6900 C.ar    1  UNL1        0.0369
     19 C         138.5001  138.9113  165.6533 C.ar    1  UNL1        0.0511
     20 C         139.0122  137.5983  165.1398 C.ar    1  UNL1        0.0179
     21 C         139.0706  137.3417  163.6631 C.ar    1  UNL1        0.0404
     22 C         138.6168  138.3982  162.6999 C.ar    1  UNL1        0.1644
     23 O         138.5579  138.4317  161.2014 O.2     1  UNL1       -0.4384
     24 N         142.4423  142.4677  166.8027 N.pl3   1  UNL1       -0.3337
     25 H         143.2874  142.7948  167.1874 H       1  UNL1        0.1468
     26 C         142.0788  142.8124  165.3888 C.3     1  UNL1        0.0724
     27 C         142.9068  142.2891  164.2527 C.3     1  UNL1        0.0410
     28 C         142.5433  142.6338  162.8388 C.3     1  UNL1        0.0939
     29 N         141.3518  143.5017  162.5610 N.pl3   1  UNL1       -0.2931
     30 C         140.5239  144.0249  163.6971 C.3     1  UNL1        0.0939
     31 C         140.8873  143.6803  165.1110 C.3     1  UNL1        0.0410
     32 C         140.9883  143.8463  161.1471 C.ar    1  UNL1        0.1317
     33 C         139.8661  143.1229  160.4636 C.ar    1  UNL1        0.0350
     34 C         139.5025  143.4675  159.0497 C.ar    1  UNL1        0.0147
     35 C         140.2612  144.5356  158.3194 C.ar    1  UNL1        0.0877
     36 C         141.3835  145.2591  159.0029 C.ar    1  UNL1        0.1105
     37 N         141.7470  144.9144  160.4167 N.ar    1  UNL1       -0.2285
     38 C         139.8977  144.8803  156.9054 C.1     1  UNL1        0.1020
     39 N         139.5342  145.2250  155.4916 N.1     1  UNL1       -0.1908
@<TRIPOS>BOND
     1    14    15    1
     2    15    16   ar
     3    16    17   ar
     4    17    18   ar
     5    18    19   ar
     6    19    12    1
     7    12     1    1
     8     1     2   ar
     9     2     3   ar
    10     3    24    1
    11    24    26    1
    12    26    27    1
    13    27    28    1
    14    28    29    1
    15    29    32    1
    16    32    33   ar
    17    33    34   ar
    18    34    35   ar
    19    35    38    1
    20    38    39    3
    21    35    36   ar
    22    36    37   ar
    23    29    30    1
    24    30    31    1
    25     3     4   ar
    26     4     7    1
    27     7     8   am
    28     7     9    2
    29     4     5   ar
    30     5     6   ar
    31    19    20   ar
    32    20    21   ar
    33    21    22   ar
    34    22    23   ar
    35    23    15   ar
    36    22    17   ar
    37     6     1   ar
    38    31    26    1
    39    37    32   ar
    40    12    13    1
    41    24    25    1
    42     8    10    1
    43     8    11    1
@<TRIPOS>MOLECULE
*****
 39 43 0 0 0
SMALL
GASTEIGER

@<TRIPOS>ATOM
      1 C         138.8841  139.4202  167.1934 C.ar    1  UNL1        0.1334
      2 C         139.8389  140.4850  166.7408 C.ar    1  UNL1        0.0488
      3 C         140.3452  141.5033  167.7189 C.ar    1  UNL1        0.0533
      4 C         139.8969  141.4568  169.1496 C.ar    1  UNL1        0.0854
      5 C         138.9422  140.3921  169.6022 C.ar    1  UNL1        0.1060
      6 N         138.4358  139.3737  168.6241 N.ar    1  UNL1       -0.2288
      7 C         140.4032  142.4751  170.1277 C.2     1  UNL1        0.2455
      8 N         139.4478  143.1601  171.0593 N.am    1  UNL1       -0.3252
      9 O         141.8650  142.8085  170.1740 O.2     1  UNL1       -0.2703
     10 H         138.4884  142.9413  171.0289 H       1  UNL1        0.1453
     11 H         139.7802  143.8284  171.7013 H       1  UNL1        0.1453
     12 N         138.3778  138.4019  166.2153 N.pl3   1  UNL1       -0.2979
     13 H         137.5832  137.8628  166.4330 H       1  UNL1        0.1536
     14 C         140.0514  138.7865  158.5554 C.3     1  UNL1        0.0950
     15 C         139.9736  138.5578  160.0359 C.ar    1  UNL1        0.2062
     16 N         138.8973  139.0626  160.9506 N.ar    1  UNL1       -0.2120
     17 C         139.2169  138.6009  162.3416 C.ar    1  UNL1        0.1198
     18 C         138.5126  138.7980  163.6512 C.ar    1  UNL1        0.0369
     19 C         139.0821  138.2048  164.9057 C.ar    1  UNL1        0.0511
     20 C         140.3559  137.4146  164.8506 C.ar    1  UNL1        0.0179
     21 C         141.0602  137.2176  163.5410 C.ar    1  UNL1        0.0404
     22 C         140.4907  137.8107  162.2865 C.ar    1  UNL1        0.1644
     23 O         140.9583  137.7841  160.8615 O.2     1  UNL1       -0.4384
     24 N         141.2999  142.5680  167.2663 N.pl3   1  UNL1       -0.3337
     25 H         141.8444  143.0541  167.9270 H       1  UNL1        0.1468
     26 C         141.4249  142.8922  165.8071 C.3     1  UNL1        0.0724
     27 C         140.3449  143.6713  165.1167 C.3     1  UNL1        0.0410
     28 C         140.4700  143.9955  163.6575 C.3     1  UNL1        0.0939
     29 N         141.6749  143.5406  162.8887 N.pl3   1  UNL1       -0.2931
     30 C         142.7549  142.7615  163.5791 C.3     1  UNL1        0.0939
     31 C         142.6299  142.4373  165.0383 C.3     1  UNL1        0.0410
     32 C         141.8000  143.8648  161.4294 C.ar    1  UNL1        0.1317
     33 C         142.7378  143.0767  160.5638 C.ar    1  UNL1        0.0350
     34 C         142.8629  143.4008  159.1046 C.ar    1  UNL1        0.0147
     35 C         142.0501  144.5131  158.5111 C.ar    1  UNL1        0.0877
     36 C         141.1123  145.3012  159.3768 C.ar    1  UNL1        0.1105
     37 N         140.9873  144.9771  160.8359 N.ar    1  UNL1       -0.2285
     38 C         142.1752  144.8373  157.0518 C.1     1  UNL1        0.1020
     39 N         142.3002  145.1614  155.5927 N.1     1  UNL1       -0.1908
@<TRIPOS>BOND
     1    14    15    1
     2    15    16   ar
     3    16    17   ar
     4    17    18   ar
     5    18    19   ar
     6    19    12    1
     7    12     1    1
     8     1     2   ar
     9     2     3   ar
    10     3    24    1
    11    24    26    1
    12    26    27    1
    13    27    28    1
    14    28    29    1
    15    29    32    1
    16    32    33   ar
    17    33    34   ar
    18    34    35   ar
    19    35    38    1
    20    38    39    3
    21    35    36   ar
    22    36    37   ar
    23    29    30    1
    24    30    31    1
    25     3     4   ar
    26     4     7    1
    27     7     8   am
    28     7     9    2
    29     4     5   ar
    30     5     6   ar
    31    19    20   ar
    32    20    21   ar
    33    21    22   ar
    34    22    23   ar
    35    23    15   ar
    36    22    17   ar
    37     6     1   ar
    38    31    26    1
    39    37    32   ar
    40    12    13    1
    41    24    25    1
    42     8    10    1
    43     8    11    1
@<TRIPOS>MOLECULE
*****
 39 43 0 0 0
SMALL
GASTEIGER

@<TRIPOS>ATOM
      1 C         139.5210  139.9645  167.7747 C.ar    1  UNL1        0.1334
      2 C         140.4270  140.8985  167.0285 C.ar    1  UNL1        0.0488
      3 C         141.4839  141.6666  167.7655 C.ar    1  UNL1        0.0533
      4 C         141.6347  141.5006  169.2487 C.ar    1  UNL1        0.0854
      5 C         140.7287  140.5666  169.9948 C.ar    1  UNL1        0.1060
      6 N         139.6718  139.7985  169.2578 N.ar    1  UNL1       -0.2288
      7 C         142.6915  142.2687  169.9856 C.2     1  UNL1        0.2455
      8 N         142.4476  142.7151  171.3967 N.am    1  UNL1       -0.3252
      9 O         143.9923  142.5904  169.3115 O.2     1  UNL1       -0.2703
     10 H         141.5938  142.5040  171.8392 H       1  UNL1        0.1453
     11 H         143.1412  143.2192  171.8804 H       1  UNL1        0.1453
     12 N         138.4642  139.1964  167.0377 N.pl3   1  UNL1       -0.2979
     13 H         137.6875  138.8367  167.5243 H       1  UNL1        0.1536
     14 C         137.9011  140.3251  159.2897 C.3     1  UNL1        0.0950
     15 C         138.1408  139.8642  160.6969 C.ar    1  UNL1        0.2062
     16 N         137.7412  140.5953  161.9442 N.ar    1  UNL1       -0.2120
     17 C         138.1756  139.7744  163.1220 C.ar    1  UNL1        0.1198
     18 C         138.0491  139.9945  164.6004 C.ar    1  UNL1        0.0369
     19 C         138.5906  138.9762  165.5593 C.ar    1  UNL1        0.0511
     20 C         139.2587  137.7377  165.0399 C.ar    1  UNL1        0.0179
     21 C         139.3852  137.5175  163.5616 C.ar    1  UNL1        0.0404
     22 C         138.8436  138.5358  162.6027 C.ar    1  UNL1        0.1644
     23 O         138.8221  138.5914  161.1039 O.2     1  UNL1       -0.4384
     24 N         142.3898  142.6006  167.0193 N.pl3   1  UNL1       -0.3337
     25 H         142.7796  143.3796  167.4781 H       1  UNL1        0.1468
     26 C         142.7020  142.3478  165.5741 C.3     1  UNL1        0.0724
     27 C         143.6356  141.2378  165.1915 C.3     1  UNL1        0.0410
     28 C         143.9477  140.9850  163.7462 C.3     1  UNL1        0.0939
     29 N         143.3262  141.8421  162.6837 N.pl3   1  UNL1       -0.2931
     30 C         142.3925  142.9520  163.0663 C.3     1  UNL1        0.0939
     31 C         142.0804  143.2049  164.5115 C.3     1  UNL1        0.0410
     32 C         143.6383  141.5893  161.2384 C.ar    1  UNL1        0.1317
     33 C         143.4608  140.2159  160.6619 C.ar    1  UNL1        0.0350
     34 C         143.7728  139.9630  159.2167 C.ar    1  UNL1        0.0147
     35 C         144.2624  141.0835  158.3480 C.ar    1  UNL1        0.0877
     36 C         144.4399  142.4569  158.9245 C.ar    1  UNL1        0.1105
     37 N         144.1278  142.7098  160.3697 N.ar    1  UNL1       -0.2285
     38 C         144.5745  140.8307  156.9027 C.1     1  UNL1        0.1020
     39 N         144.8865  140.5779  155.4575 N.1     1  UNL1       -0.1908
@<TRIPOS>BOND
     1    14    15    1
     2    15    16   ar
     3    16    17   ar
     4    17    18   ar
     5    18    19   ar
     6    19    12    1
     7    12     1    1
     8     1     2   ar
     9     2     3   ar
    10     3    24    1
    11    24    26    1
    12    26    27    1
    13    27    28    1
    14    28    29    1
    15    29    32    1
    16    32    33   ar
    17    33    34   ar
    18    34    35   ar
    19    35    38    1
    20    38    39    3
    21    35    36   ar
    22    36    37   ar
    23    29    30    1
    24    30    31    1
    25     3     4   ar
    26     4     7    1
    27     7     8   am
    28     7     9    2
    29     4     5   ar
    30     5     6   ar
    31    19    20   ar
    32    20    21   ar
    33    21    22   ar
    34    22    23   ar
    35    23    15   ar
    36    22    17   ar
    37     6     1   ar
    38    31    26    1
    39    37    32   ar
    40    12    13    1
    41    24    25    1
    42     8    10    1
    43     8    11    1
@<TRIPOS>MOLECULE
*****
 39 43 0 0 0
SMALL
GASTEIGER

@<TRIPOS>ATOM
      1 C         139.5296  139.0018  157.8155 C.ar    1  UNL1        0.1334
      2 C         140.7936  139.0555  158.6213 C.ar    1  UNL1        0.0488
      3 C         141.9589  138.1882  158.2473 C.ar    1  UNL1        0.0533
      4 C         141.8602  137.2673  157.0674 C.ar    1  UNL1        0.0854
      5 C         140.5962  137.2136  156.2616 C.ar    1  UNL1        0.1060
      6 N         139.4309  138.0809  156.6356 N.ar    1  UNL1       -0.2288
      7 C         143.0255  136.4000  156.6933 C.2     1  UNL1        0.2455
      8 N         142.9710  134.9220  156.9429 N.am    1  UNL1       -0.3252
      9 O         144.2453  137.0109  156.0696 O.2     1  UNL1       -0.2703
     10 H         142.1704  134.5211  157.3522 H       1  UNL1        0.1453
     11 H         143.7358  134.3528  156.6974 H       1  UNL1        0.1453
     12 N         138.3643  139.8691  158.1895 N.pl3   1  UNL1       -0.2979
     13 H         137.7268  140.1619  157.4987 H       1  UNL1        0.1536
     14 C         137.8163  144.3846  164.5874 C.3     1  UNL1        0.0950
     15 C         137.8633  143.3058  163.5463 C.ar    1  UNL1        0.2062
     16 N         138.1391  143.5020  162.0850 N.ar    1  UNL1       -0.2120
     17 C         138.0889  142.1588  161.4193 C.ar    1  UNL1        0.1198
     18 C         138.2830  141.7377  159.9928 C.ar    1  UNL1        0.0369
     19 C         138.1702  140.2902  159.6161 C.ar    1  UNL1        0.0511
     20 C         137.8633  139.2638  160.6660 C.ar    1  UNL1        0.0179
     21 C         137.6693  139.6848  162.0925 C.ar    1  UNL1        0.0404
     22 C         137.7821  141.1323  162.4691 C.ar    1  UNL1        0.1644
     23 O         137.6426  141.8412  163.7837 O.2     1  UNL1       -0.4384
     24 N         143.2229  138.2419  159.0531 N.pl3   1  UNL1       -0.3337
     25 H         144.0615  137.8883  158.6776 H       1  UNL1        0.1468
     26 C         143.2093  138.8342  160.4311 C.3     1  UNL1        0.0724
     27 C         142.7499  138.0101  161.5972 C.3     1  UNL1        0.0410
     28 C         142.7362  138.6025  162.9752 C.3     1  UNL1        0.0939
     29 N         143.1820  140.0190  163.1871 N.pl3   1  UNL1       -0.2931
     30 C         143.6414  140.8431  162.0210 C.3     1  UNL1        0.0939
     31 C         143.6550  140.2507  160.6431 C.3     1  UNL1        0.0410
     32 C         143.1683  140.6114  164.5652 C.ar    1  UNL1        0.1317
     33 C         143.6312  142.0220  164.7798 C.ar    1  UNL1        0.0350
     34 C         143.6176  142.6144  166.1577 C.ar    1  UNL1        0.0147
     35 C         143.1411  141.7962  167.3211 C.ar    1  UNL1        0.0877
     36 C         142.6782  140.3857  167.1065 C.ar    1  UNL1        0.1105
     37 N         142.6918  139.7932  165.7286 N.ar    1  UNL1       -0.2285
     38 C         143.1274  142.3886  168.6991 C.1     1  UNL1        0.1020
     39 N         143.1138  142.9811  170.0771 N.1     1  UNL1       -0.1908
@<TRIPOS>BOND
     1    14    15    1
     2    15    16   ar
     3    16    17   ar
     4    17    18   ar
     5    18    19   ar
     6    19    12    1
     7    12     1    1
     8     1     2   ar
     9     2     3   ar
    10     3    24    1
    11    24    26    1
    12    26    27    1
    13    27    28    1
    14    28    29    1
    15    29    32    1
    16    32    33   ar
    17    33    34   ar
    18    34    35   ar
    19    35    38    1
    20    38    39    3
    21    35    36   ar
    22    36    37   ar
    23    29    30    1
    24    30    31    1
    25     3     4   ar
    26     4     7    1
    27     7     8   am
    28     7     9    2
    29     4     5   ar
    30     5     6   ar
    31    19    20   ar
    32    20    21   ar
    33    21    22   ar
    34    22    23   ar
    35    23    15   ar
    36    22    17   ar
    37     6     1   ar
    38    31    26    1
    39    37    32   ar
    40    12    13    1
    41    24    25    1
    42     8    10    1
    43     8    11    1
@<TRIPOS>MOLECULE
*****
 39 43 0 0 0
SMALL
GASTEIGER

@<TRIPOS>ATOM
      1 C         139.1625  141.9409  158.6765 C.ar    1  UNL1        0.1334
      2 C         140.2468  142.4122  159.5996 C.ar    1  UNL1        0.0488
      3 C         141.2604  143.4081  159.1192 C.ar    1  UNL1        0.0533
      4 C         141.1897  143.9327  157.7157 C.ar    1  UNL1        0.0854
      5 C         140.1054  143.4614  156.7926 C.ar    1  UNL1        0.1060
      6 N         139.0918  142.4655  157.2730 N.ar    1  UNL1       -0.2288
      7 C         142.2033  144.9286  157.2353 C.2     1  UNL1        0.2455
      8 N         142.9507  144.6817  155.9585 N.am    1  UNL1       -0.3252
      9 O         142.4695  146.1715  158.0318 O.2     1  UNL1       -0.2703
     10 H         142.7759  143.8659  155.4357 H       1  UNL1        0.1453
     11 H         143.6159  145.3353  155.6432 H       1  UNL1        0.1453
     12 N         138.1488  140.9450  159.1568 N.pl3   1  UNL1       -0.2979
     13 H         137.3228  140.7962  158.6424 H       1  UNL1        0.1536
     14 C         138.2986  139.0248  166.7669 C.3     1  UNL1        0.0950
     15 C         138.3986  139.1369  165.2745 C.ar    1  UNL1        0.2062
     16 N         137.9207  140.2903  164.4430 N.ar    1  UNL1       -0.2120
     17 C         138.2208  139.9816  163.0061 C.ar    1  UNL1        0.1198
     18 C         137.9757  140.7508  161.7419 C.ar    1  UNL1        0.0369
     19 C         138.3939  140.1758  160.4211 C.ar    1  UNL1        0.0511
     20 C         139.0572  138.8316  160.3646 C.ar    1  UNL1        0.0179
     21 C         139.3023  138.0624  161.6287 C.ar    1  UNL1        0.0404
     22 C         138.8841  138.6374  162.9495 C.ar    1  UNL1        0.1644
     23 O         138.9939  138.1154  164.3514 O.2     1  UNL1       -0.4384
     24 N         142.3447  143.8794  160.0423 N.pl3   1  UNL1       -0.3337
     25 H         143.1243  144.3601  159.6811 H       1  UNL1        0.1468
     26 C         142.2413  143.6183  161.5157 C.3     1  UNL1        0.0724
     27 C         141.4275  144.5314  162.3840 C.3     1  UNL1        0.0410
     28 C         141.3241  144.2703  163.8575 C.3     1  UNL1        0.0939
     29 N         142.0345  143.0960  164.4627 N.pl3   1  UNL1       -0.2931
     30 C         142.8484  142.1829  163.5945 C.3     1  UNL1        0.0939
     31 C         142.9518  142.4440  162.1211 C.3     1  UNL1        0.0410
     32 C         141.9311  142.8348  165.9362 C.ar    1  UNL1        0.1317
     33 C         140.6003  142.9250  166.6223 C.ar    1  UNL1        0.0350
     34 C         140.4968  142.6639  168.0957 C.ar    1  UNL1        0.0147
     35 C         141.7242  142.3126  168.8831 C.ar    1  UNL1        0.0877
     36 C         143.0551  142.2224  168.1970 C.ar    1  UNL1        0.1105
     37 N         143.1585  142.4835  166.7236 N.ar    1  UNL1       -0.2285
     38 C         141.6209  142.0514  170.3566 C.1     1  UNL1        0.1020
     39 N         141.5174  141.7903  171.8301 N.1     1  UNL1       -0.1908
@<TRIPOS>BOND
     1    14    15    1
     2    15    16   ar
     3    16    17   ar
     4    17    18   ar
     5    18    19   ar
     6    19    12    1
     7    12     1    1
     8     1     2   ar
     9     2     3   ar
    10     3    24    1
    11    24    26    1
    12    26    27    1
    13    27    28    1
    14    28    29    1
    15    29    32    1
    16    32    33   ar
    17    33    34   ar
    18    34    35   ar
    19    35    38    1
    20    38    39    3
    21    35    36   ar
    22    36    37   ar
    23    29    30    1
    24    30    31    1
    25     3     4   ar
    26     4     7    1
    27     7     8   am
    28     7     9    2
    29     4     5   ar
    30     5     6   ar
    31    19    20   ar
    32    20    21   ar
    33    21    22   ar
    34    22    23   ar
    35    23    15   ar
    36    22    17   ar
    37     6     1   ar
    38    31    26    1
    39    37    32   ar
    40    12    13    1
    41    24    25    1
    42     8    10    1
    43     8    11    1
@<TRIPOS>MOLECULE
*****
 39 43 0 0 0
SMALL
GASTEIGER

@<TRIPOS>ATOM
      1 C         139.3871  139.6148  167.2961 C.ar    1  UNL1        0.1334
      2 C         140.7557  139.7759  166.7036 C.ar    1  UNL1        0.0488
      3 C         141.9239  140.0930  167.5895 C.ar    1  UNL1        0.0533
      4 C         141.7235  140.2489  169.0679 C.ar    1  UNL1        0.0854
      5 C         140.3549  140.0877  169.6603 C.ar    1  UNL1        0.1060
      6 N         139.1867  139.7706  168.7745 N.ar    1  UNL1       -0.2288
      7 C         142.8917  140.5660  169.9537 C.2     1  UNL1        0.2455
      8 N         143.2998  139.6039  171.0298 N.am    1  UNL1       -0.3252
      9 O         143.6518  141.8451  169.7635 O.2     1  UNL1       -0.2703
     10 H         142.8010  138.7644  171.1546 H       1  UNL1        0.1453
     11 H         144.0666  139.8121  171.6112 H       1  UNL1        0.1453
     12 N         138.2188  139.2977  166.4103 N.pl3   1  UNL1       -0.2979
     13 H         137.4031  138.9021  166.7941 H       1  UNL1        0.1536
     14 C         139.6424  138.4188  158.7406 C.3     1  UNL1        0.0950
     15 C         139.2682  138.8448  160.1293 C.ar    1  UNL1        0.2062
     16 N         139.4517  138.0360  161.3792 N.ar    1  UNL1       -0.2120
     17 C         138.9417  138.8456  162.5343 C.ar    1  UNL1        0.1198
     18 C         138.8670  138.5599  164.0049 C.ar    1  UNL1        0.0369
     19 C         138.2935  139.5834  164.9396 C.ar    1  UNL1        0.0511
     20 C         137.7947  140.8926  164.4036 C.ar    1  UNL1        0.0179
     21 C         137.8694  141.1783  162.9330 C.ar    1  UNL1        0.0404
     22 C         138.4429  140.1548  161.9984 C.ar    1  UNL1        0.1644
     23 O         138.6447  140.1542  160.5120 O.2     1  UNL1       -0.4384
     24 N         143.2924  140.2542  166.9970 N.pl3   1  UNL1       -0.3337
     25 H         144.0859  140.2392  167.5795 H       1  UNL1        0.1468
     26 C         143.4519  140.4383  165.5169 C.3     1  UNL1        0.0724
     27 C         143.3009  141.8017  164.9101 C.3     1  UNL1        0.0410
     28 C         143.4605  141.9858  163.4300 C.3     1  UNL1        0.0939
     29 N         143.7711  140.8064  162.5567 N.pl3   1  UNL1       -0.2931
     30 C         143.9221  139.4430  163.1635 C.3     1  UNL1        0.0939
     31 C         143.7625  139.2589  164.6436 C.3     1  UNL1        0.0410
     32 C         143.9306  140.9904  161.0766 C.ar    1  UNL1        0.1317
     33 C         144.3800  142.3128  160.5294 C.ar    1  UNL1        0.0350
     34 C         144.5395  142.4969  159.0493 C.ar    1  UNL1        0.0147
     35 C         144.2498  141.3586  158.1165 C.ar    1  UNL1        0.0877
     36 C         143.8004  140.0362  158.6637 C.ar    1  UNL1        0.1105
     37 N         143.6408  139.8522  160.1437 N.ar    1  UNL1       -0.2285
     38 C         144.4093  141.5426  156.6363 C.1     1  UNL1        0.1020
     39 N         144.5689  141.7267  155.1563 N.1     1  UNL1       -0.1908
@<TRIPOS>BOND
     1    14    15    1
     2    15    16   ar
     3    16    17   ar
     4    17    18   ar
     5    18    19   ar
     6    19    12    1
     7    12     1    1
     8     1     2   ar
     9     2     3   ar
    10     3    24    1
    11    24    26    1
    12    26    27    1
    13    27    28    1
    14    28    29    1
    15    29    32    1
    16    32    33   ar
    17    33    34   ar
    18    34    35   ar
    19    35    38    1
    20    38    39    3
    21    35    36   ar
    22    36    37   ar
    23    29    30    1
    24    30    31    1
    25     3     4   ar
    26     4     7    1
    27     7     8   am
    28     7     9    2
    29     4     5   ar
    30     5     6   ar
    31    19    20   ar
    32    20    21   ar
    33    21    22   ar
    34    22    23   ar
    35    23    15   ar
    36    22    17   ar
    37     6     1   ar
    38    31    26    1
    39    37    32   ar
    40    12    13    1
    41    24    25    1
    42     8    10    1
    43     8    11    1
@<TRIPOS>MOLECULE
*****
 39 43 0 0 0
SMALL
GASTEIGER

@<TRIPOS>ATOM
      1 C         142.4462  139.6300  167.1816 C.ar    1  UNL1        0.1334
      2 C         141.6051  140.7476  166.6397 C.ar    1  UNL1        0.0488
      3 C         141.2541  141.9143  167.5148 C.ar    1  UNL1        0.0533
      4 C         141.7443  141.9633  168.9317 C.ar    1  UNL1        0.0854
      5 C         142.5853  140.8457  169.4734 C.ar    1  UNL1        0.1060
      6 N         142.9363  139.6791  168.5983 N.ar    1  UNL1       -0.2288
      7 C         141.3933  143.1300  169.8067 C.2     1  UNL1        0.2455
      8 N         142.3977  143.6625  170.7852 N.am    1  UNL1       -0.3252
      9 O         140.0378  143.7641  169.7032 O.2     1  UNL1       -0.2703
     10 H         143.2873  143.2463  170.8531 H       1  UNL1        0.1453
     11 H         142.1673  144.4282  171.3595 H       1  UNL1        0.1453
     12 N         142.7972  138.4634  166.3065 N.pl3   1  UNL1       -0.2979
     13 H         142.7860  137.5506  166.6751 H       1  UNL1        0.1536
     14 C         142.6873  138.0703  158.4671 C.3     1  UNL1        0.0950
     15 C         142.9358  138.3174  159.9255 C.ar    1  UNL1        0.2062
     16 N         142.1379  137.7537  161.0638 N.ar    1  UNL1       -0.2120
     17 C         142.7349  138.2595  162.3436 C.ar    1  UNL1        0.1198
     18 C         142.3667  138.0354  163.7803 C.ar    1  UNL1        0.0369
     19 C         143.1654  138.6875  164.8697 C.ar    1  UNL1        0.0511
     20 C         144.3322  139.5638  164.5224 C.ar    1  UNL1        0.0179
     21 C         144.7004  139.7880  163.0857 C.ar    1  UNL1        0.0404
     22 C         143.9017  139.1358  161.9963 C.ar    1  UNL1        0.1644
     23 O         144.0259  139.1716  160.5019 O.2     1  UNL1       -0.4384
     24 N         140.4130  143.0319  166.9731 N.pl3   1  UNL1       -0.3337
     25 H         139.9210  143.6211  167.5895 H       1  UNL1        0.1468
     26 C         140.3216  143.2517  165.4921 C.3     1  UNL1        0.0724
     27 C         139.0121  143.0630  164.7853 C.3     1  UNL1        0.0410
     28 C         138.9207  143.2829  163.3043 C.3     1  UNL1        0.0939
     29 N         140.1387  143.6914  162.5301 N.pl3   1  UNL1       -0.2931
     30 C         141.4482  143.8802  163.2369 C.3     1  UNL1        0.0939
     31 C         141.5397  143.6603  164.7179 C.3     1  UNL1        0.0410
     32 C         140.0473  143.9113  161.0491 C.ar    1  UNL1        0.1317
     33 C         139.5331  142.8189  160.1590 C.ar    1  UNL1        0.0350
     34 C         139.4417  143.0387  158.6781 C.ar    1  UNL1        0.0147
     35 C         139.8645  144.3509  158.0872 C.ar    1  UNL1        0.0877
     36 C         140.3787  145.4434  158.9772 C.ar    1  UNL1        0.1105
     37 N         140.4702  145.2235  160.4582 N.ar    1  UNL1       -0.2285
     38 C         139.7731  144.5708  156.6061 C.1     1  UNL1        0.1020
     39 N         139.6817  144.7907  155.1252 N.1     1  UNL1       -0.1908
@<TRIPOS>BOND
     1    14    15    1
     2    15    16   ar
     3    16    17   ar
     4    17    18   ar
     5    18    19   ar
     6    19    12    1
     7    12     1    1
     8     1     2   ar
     9     2     3   ar
    10     3    24    1
    11    24    26    1
    12    26    27    1
    13    27    28    1
    14    28    29    1
    15    29    32    1
    16    32    33   ar
    17    33    34   ar
    18    34    35   ar
    19    35    38    1
    20    38    39    3
    21    35    36   ar
    22    36    37   ar
    23    29    30    1
    24    30    31    1
    25     3     4   ar
    26     4     7    1
    27     7     8   am
    28     7     9    2
    29     4     5   ar
    30     5     6   ar
    31    19    20   ar
    32    20    21   ar
    33    21    22   ar
    34    22    23   ar
    35    23    15   ar
    36    22    17   ar
    37     6     1   ar
    38    31    26    1
    39    37    32   ar
    40    12    13    1
    41    24    25    1
    42     8    10    1
    43     8    11    1
@<TRIPOS>MOLECULE
*****
 39 43 0 0 0
SMALL
GASTEIGER

@<TRIPOS>ATOM
      1 C         141.6003  143.3070  158.0620 C.ar    1  UNL1        0.1334
      2 C         142.5017  143.0565  159.2345 C.ar    1  UNL1        0.0488
      3 C         143.9481  142.7275  159.0118 C.ar    1  UNL1        0.0533
      4 C         144.4932  142.6491  157.6164 C.ar    1  UNL1        0.0854
      5 C         143.5918  142.8996  156.4440 C.ar    1  UNL1        0.1060
      6 N         142.1454  143.2286  156.6667 N.ar    1  UNL1       -0.2288
      7 C         145.9396  142.3202  157.3937 C.2     1  UNL1        0.2455
      8 N         146.3222  141.2310  156.4360 N.am    1  UNL1       -0.3252
      9 O         147.0035  143.0805  158.1287 O.2     1  UNL1       -0.2703
     10 H         145.6240  140.7320  155.9536 H       1  UNL1        0.1453
     11 H         147.2715  141.0151  156.2898 H       1  UNL1        0.1453
     12 N         140.1539  143.6359  158.2847 N.pl3   1  UNL1       -0.2979
     13 H         139.5979  143.9447  157.5332 H       1  UNL1        0.1536
     14 C         138.3849  145.0642  165.7983 C.3     1  UNL1        0.0950
     15 C         138.5524  144.5615  164.3950 C.ar    1  UNL1        0.2062
     16 N         139.3858  145.1996  163.3235 N.ar    1  UNL1       -0.2120
     17 C         139.2644  144.3649  162.0830 C.ar    1  UNL1        0.1198
     18 C         139.8637  144.5066  160.7153 C.ar    1  UNL1        0.0369
     19 C         139.5545  143.4943  159.6525 C.ar    1  UNL1        0.0511
     20 C         138.6460  142.3403  159.9575 C.ar    1  UNL1        0.0179
     21 C         138.0467  142.1987  161.3252 C.ar    1  UNL1        0.0404
     22 C         138.3559  143.2110  162.3880 C.ar    1  UNL1        0.1644
     23 O         137.9159  143.3325  163.8168 O.2     1  UNL1       -0.4384
     24 N         144.8495  142.4770  160.1842 N.pl3   1  UNL1       -0.3337
     25 H         145.8098  142.3142  160.0409 H       1  UNL1        0.1468
     26 C         144.2877  142.4746  161.5750 C.3     1  UNL1        0.0724
     27 C         144.1208  143.7665  162.3187 C.3     1  UNL1        0.0410
     28 C         143.5590  143.7640  163.7096 C.3     1  UNL1        0.0939
     29 N         143.1642  142.4697  164.3567 N.pl3   1  UNL1       -0.2931
     30 C         143.3311  141.1778  163.6130 C.3     1  UNL1        0.0939
     31 C         143.8929  141.1802  162.2222 C.3     1  UNL1        0.0410
     32 C         142.6023  142.4672  165.7476 C.ar    1  UNL1        0.1317
     33 C         143.5187  142.3222  166.9263 C.ar    1  UNL1        0.0350
     34 C         142.9569  142.3198  168.3171 C.ar    1  UNL1        0.0147
     35 C         141.4789  142.4622  168.5292 C.ar    1  UNL1        0.0877
     36 C         140.5626  142.6072  167.3505 C.ar    1  UNL1        0.1105
     37 N         141.1243  142.6097  165.9597 N.ar    1  UNL1       -0.2285
     38 C         140.9171  142.4598  169.9201 C.1     1  UNL1        0.1020
     39 N         140.3553  142.4572  171.3108 N.1     1  UNL1       -0.1908
@<TRIPOS>BOND
     1    14    15    1
     2    15    16   ar
     3    16    17   ar
     4    17    18   ar
     5    18    19   ar
     6    19    12    1
     7    12     1    1
     8     1     2   ar
     9     2     3   ar
    10     3    24    1
    11    24    26    1
    12    26    27    1
    13    27    28    1
    14    28    29    1
    15    29    32    1
    16    32    33   ar
    17    33    34   ar
    18    34    35   ar
    19    35    38    1
    20    38    39    3
    21    35    36   ar
    22    36    37   ar
    23    29    30    1
    24    30    31    1
    25     3     4   ar
    26     4     7    1
    27     7     8   am
    28     7     9    2
    29     4     5   ar
    30     5     6   ar
    31    19    20   ar
    32    20    21   ar
    33    21    22   ar
    34    22    23   ar
    35    23    15   ar
    36    22    17   ar
    37     6     1   ar
    38    31    26    1
    39    37    32   ar
    40    12    13    1
    41    24    25    1
    42     8    10    1
    43     8    11    1
@<TRIPOS>MOLECULE
*****
 39 43 0 0 0
SMALL
GASTEIGER

@<TRIPOS>ATOM
      1 C         141.2051  139.0303  157.4650 C.ar    1  UNL1        0.1334
      2 C         140.0876  139.2845  158.4329 C.ar    1  UNL1        0.0488
      3 C         138.8087  139.9061  157.9554 C.ar    1  UNL1        0.0533
      4 C         138.6472  140.2734  156.5100 C.ar    1  UNL1        0.0854
      5 C         139.7646  140.0191  155.5422 C.ar    1  UNL1        0.1060
      6 N         141.0435  139.3976  156.0197 N.ar    1  UNL1       -0.2288
      7 C         137.3683  140.8950  156.0325 C.2     1  UNL1        0.2455
      8 N         137.4048  142.0090  155.0288 N.am    1  UNL1       -0.3252
      9 O         136.0528  140.4024  156.5588 O.2     1  UNL1       -0.2703
     10 H         138.2682  142.3323  154.6834 H       1  UNL1        0.1453
     11 H         136.5654  142.4170  154.7154 H       1  UNL1        0.1453
     12 N         142.4840  138.4087  157.9425 N.pl3   1  UNL1       -0.2979
     13 H         143.0026  137.8263  157.3416 H       1  UNL1        0.1536
     14 C         145.6006  142.0803  164.1417 C.3     1  UNL1        0.0950
     15 C         144.9723  141.1581  163.1392 C.ar    1  UNL1        0.2062
     16 N         144.6926  141.4781  161.7007 N.ar    1  UNL1       -0.2120
     17 C         144.0609  140.2718  161.0717 C.ar    1  UNL1        0.1198
     18 C         143.5722  140.0060  159.6788 C.ar    1  UNL1        0.0369
     19 C         142.9727  138.6745  159.3356 C.ar    1  UNL1        0.0511
     20 C         142.8620  137.6089  160.3853 C.ar    1  UNL1        0.0179
     21 C         143.3507  137.8746  161.7783 C.ar    1  UNL1        0.0404
     22 C         143.9501  139.2061  162.1215 C.ar    1  UNL1        0.1644
     23 O         144.5134  139.7539  163.3993 O.2     1  UNL1       -0.4384
     24 N         137.6913  140.1604  158.9232 N.pl3   1  UNL1       -0.3337
     25 H         136.7820  140.3371  158.5899 H       1  UNL1        0.1468
     26 C         137.9594  140.1455  160.3990 C.3     1  UNL1        0.0724
     27 C         138.3138  141.4179  161.1098 C.3     1  UNL1        0.0410
     28 C         138.5819  141.4029  162.5856 C.3     1  UNL1        0.0939
     29 N         138.4955  140.1156  163.3505 N.pl3   1  UNL1       -0.2931
     30 C         138.1411  138.8431  162.6397 C.3     1  UNL1        0.0939
     31 C         137.8730  138.8580  161.1640 C.3     1  UNL1        0.0410
     32 C         138.7636  140.1006  164.8264 C.ar    1  UNL1        0.1317
     33 C         138.1367  139.0481  165.6919 C.ar    1  UNL1        0.0350
     34 C         138.4047  139.0330  167.1676 C.ar    1  UNL1        0.0147
     35 C         139.2997  140.0706  167.7779 C.ar    1  UNL1        0.0877
     36 C         139.9266  141.1231  166.9124 C.ar    1  UNL1        0.1105
     37 N         139.6586  141.1381  165.4366 N.ar    1  UNL1       -0.2285
     38 C         139.5678  140.0556  169.2537 C.1     1  UNL1        0.1020
     39 N         139.8358  140.0406  170.7294 N.1     1  UNL1       -0.1908
@<TRIPOS>BOND
     1    14    15    1
     2    15    16   ar
     3    16    17   ar
     4    17    18   ar
     5    18    19   ar
     6    19    12    1
     7    12     1    1
     8     1     2   ar
     9     2     3   ar
    10     3    24    1
    11    24    26    1
    12    26    27    1
    13    27    28    1
    14    28    29    1
    15    29    32    1
    16    32    33   ar
    17    33    34   ar
    18    34    35   ar
    19    35    38    1
    20    38    39    3
    21    35    36   ar
    22    36    37   ar
    23    29    30    1
    24    30    31    1
    25     3     4   ar
    26     4     7    1
    27     7     8   am
    28     7     9    2
    29     4     5   ar
    30     5     6   ar
    31    19    20   ar
    32    20    21   ar
    33    21    22   ar
    34    22    23   ar
    35    23    15   ar
    36    22    17   ar
    37     6     1   ar
    38    31    26    1
    39    37    32   ar
    40    12    13    1
    41    24    25    1
    42     8    10    1
    43     8    11    1
