@<TRIPOS>MOLECULE
*****
 33 37 0 0 0
SMALL
GASTEIGER

@<TRIPOS>ATOM
      1 N         139.6525  138.3575  162.5930 N.3     1  UNL1       -0.2720
      2 C         141.1281  138.3501  162.8628 C.3     1  UNL1        0.0768
      3 C         141.8475  138.6805  164.1370 C.3     1  UNL1        0.0434
      4 C         141.2690  139.0998  165.4558 C.ar    1  UNL1       -0.0216
      5 C         142.3437  139.3351  166.4756 C.ar    1  UNL1        0.0337
      6 C         141.9776  139.7629  167.8659 C.ar    1  UNL1        0.1525
      7 C         140.5369  139.9554  168.2365 C.ar    1  UNL1        0.0878
      8 C         139.4622  139.7201  167.2167 C.ar    1  UNL1        0.0135
      9 C         139.8283  139.2924  165.8264 C.ar    1  UNL1       -0.0233
     10 C         138.6103  139.1131  164.9696 C.3     1  UNL1        0.0434
     11 C         138.5321  138.6970  163.5305 C.3     1  UNL1        0.0768
     12 N         140.1707  140.3832  169.6268 N.am    1  UNL1       -0.2512
     13 C         138.7300  140.5757  169.9973 C.3     1  UNL1        0.1202
     14 C         141.2453  140.6185  170.6465 C.2     1  UNL1        0.2740
     15 O         140.8792  141.0462  172.0368 O.2     1  UNL1       -0.2705
     16 C         142.6861  140.4260  170.2760 C.3     1  UNL1        0.2900
     17 O         143.0521  139.9982  168.8856 O.3     1  UNL1       -0.4643
     18 C         139.2436  137.9747  161.2015 C.3     1  UNL1        0.0730
     19 C         139.3190  138.9828  160.0934 C.3     1  UNL1        0.0294
     20 C         138.1786  139.9294  159.8617 C.3     1  UNL1        0.0666
     21 S         138.4523  141.3643  159.5210 S.3     1  UNL1       -0.0756
     22 C         140.5322  143.4603  162.0402 C.ar    1  UNL1        0.2029
     23 N         139.1494  143.9783  162.3042 N.ar    1  UNL1       -0.1250
     24 N         138.2020  143.2562  161.3926 N.ar    1  UNL1       -0.1220
     25 C         138.9993  142.2919  160.5652 C.ar    1  UNL1        0.1933
     26 N         140.4393  142.4180  160.9655 N.ar    1  UNL1       -0.2860
     27 C         141.5854  141.6387  160.3917 C.3     1  UNL1        0.1341
     28 C         141.3208  142.8786  165.1530 C.3     1  UNL1        0.0556
     29 C         142.1499  143.6389  164.1606 C.ar    1  UNL1        0.1001
     30 N         143.4869  144.2652  164.4249 N.ar    1  UNL1       -0.2085
     31 C         143.9508  144.9197  163.1574 C.ar    1  UNL1        0.2849
     32 O         142.9004  144.6979  162.1098 O.2     1  UNL1       -0.4283
     33 C         141.7873  143.9062  162.7298 C.ar    1  UNL1        0.1964
@<TRIPOS>BOND
     1    28    29    1
     2    29    30   ar
     3    30    31   ar
     4    31    32   ar
     5    32    33   ar
     6    33    22    1
     7    22    23   ar
     8    23    24   ar
     9    24    25   ar
    10    25    21    1
    11    21    20    1
    12    20    19    1
    13    19    18    1
    14    18     1    1
    15     1     2    1
    16     2     3    1
    17     3     4    1
    18     4     5   ar
    19     5     6   ar
    20     6     7   ar
    21     7     8   ar
    22     8     9   ar
    23     9    10    1
    24    10    11    1
    25     7    12    1
    26    12    13    1
    27    12    14   am
    28    14    15    2
    29    14    16    1
    30    16    17    1
    31    25    26   ar
    32    26    27    1
    33    33    29   ar
    34    26    22   ar
    35    11     1    1
    36     9     4   ar
    37    17     6    1
@<TRIPOS>MOLECULE
*****
 33 37 0 0 0
SMALL
GASTEIGER

@<TRIPOS>ATOM
      1 N         143.5807  140.1044  162.6562 N.3     1  UNL1       -0.2720
      2 C         142.7989  141.3842  162.6884 C.3     1  UNL1        0.0768
      3 C         142.1515  142.0553  163.8635 C.3     1  UNL1        0.0434
      4 C         142.1259  141.6123  165.2962 C.ar    1  UNL1       -0.0216
      5 C         141.3647  142.5783  166.1550 C.ar    1  UNL1        0.0337
      6 C         141.2191  142.3208  167.6256 C.ar    1  UNL1        0.1525
      7 C         141.8346  141.0973  168.2374 C.ar    1  UNL1        0.0878
      8 C         142.5958  140.1313  167.3786 C.ar    1  UNL1        0.0135
      9 C         142.7415  140.3888  165.9081 C.ar    1  UNL1       -0.0233
     10 C         143.5346  139.3062  165.2381 C.3     1  UNL1        0.0434
     11 C         143.9080  139.1797  163.7908 C.3     1  UNL1        0.0768
     12 N         141.6889  140.8399  169.7079 N.am    1  UNL1       -0.2512
     13 C         142.3045  139.6164  170.3197 C.3     1  UNL1        0.1202
     14 C         140.9278  141.8059  170.5666 C.2     1  UNL1        0.2740
     15 O         140.7821  141.5484  172.0371 O.2     1  UNL1       -0.2705
     16 C         140.3122  143.0293  169.9549 C.3     1  UNL1        0.2900
     17 O         140.4579  143.2867  168.4843 O.3     1  UNL1       -0.4643
     18 C         144.1042  139.6954  161.3113 C.3     1  UNL1        0.0730
     19 C         143.1709  139.5975  160.1412 C.3     1  UNL1        0.0294
     20 C         142.2463  138.4229  160.0155 C.3     1  UNL1        0.0666
     21 S         140.8704  138.4846  160.6097 S.3     1  UNL1       -0.0756
     22 C         139.6413  137.7194  164.2110 C.ar    1  UNL1        0.2029
     23 N         140.9472  136.9816  164.1875 N.ar    1  UNL1       -0.1250
     24 N         141.5665  137.1785  162.8356 N.ar    1  UNL1       -0.1220
     25 C         140.6434  138.0379  162.0235 C.ar    1  UNL1        0.1933
     26 N         139.4536  138.3721  162.8736 N.ar    1  UNL1       -0.2860
     27 C         138.2818  139.2119  162.4590 C.3     1  UNL1        0.1341
     28 C         138.6870  140.4384  165.7426 C.3     1  UNL1        0.0556
     29 C         138.2515  139.0414  166.0726 C.ar    1  UNL1        0.1001
     30 N         137.3009  138.6490  167.1645 N.ar    1  UNL1       -0.2085
     31 C         137.1521  137.1567  167.1354 C.ar    1  UNL1        0.2849
     32 O         138.0107  136.6268  166.0254 O.2     1  UNL1       -0.4283
     33 C         138.6902  137.7916  165.3685 C.ar    1  UNL1        0.1964
@<TRIPOS>BOND
     1    28    29    1
     2    29    30   ar
     3    30    31   ar
     4    31    32   ar
     5    32    33   ar
     6    33    22    1
     7    22    23   ar
     8    23    24   ar
     9    24    25   ar
    10    25    21    1
    11    21    20    1
    12    20    19    1
    13    19    18    1
    14    18     1    1
    15     1     2    1
    16     2     3    1
    17     3     4    1
    18     4     5   ar
    19     5     6   ar
    20     6     7   ar
    21     7     8   ar
    22     8     9   ar
    23     9    10    1
    24    10    11    1
    25     7    12    1
    26    12    13    1
    27    12    14   am
    28    14    15    2
    29    14    16    1
    30    16    17    1
    31    25    26   ar
    32    26    27    1
    33    33    29   ar
    34    26    22   ar
    35    11     1    1
    36     9     4   ar
    37    17     6    1
@<TRIPOS>MOLECULE
*****
 33 37 0 0 0
SMALL
GASTEIGER

@<TRIPOS>ATOM
      1 N         143.1979  138.4438  162.8702 N.3     1  UNL1       -0.2720
      2 C         141.7631  138.0657  163.0904 C.3     1  UNL1        0.0768
      3 C         140.8914  138.3542  164.2766 C.3     1  UNL1        0.0434
      4 C         141.2392  139.0921  165.5353 C.ar    1  UNL1       -0.0216
      5 C         140.0702  139.1574  166.4730 C.ar    1  UNL1        0.0337
      6 C         140.2066  139.8543  167.7943 C.ar    1  UNL1        0.1525
      7 C         141.5119  140.4859  168.1779 C.ar    1  UNL1        0.0878
      8 C         142.6809  140.4206  167.2402 C.ar    1  UNL1        0.0135
      9 C         142.5445  139.7237  165.9190 C.ar    1  UNL1       -0.0233
     10 C         143.8245  139.7734  165.1385 C.3     1  UNL1        0.0434
     11 C         144.1152  139.2038  163.7816 C.3     1  UNL1        0.0768
     12 N         141.6483  141.1829  169.4991 N.am    1  UNL1       -0.2512
     13 C         142.9537  141.8144  169.8827 C.3     1  UNL1        0.1202
     14 C         140.4793  141.2482  170.4368 C.2     1  UNL1        0.2740
     15 O         140.6157  141.9451  171.7580 O.2     1  UNL1       -0.2705
     16 C         139.1740  140.6166  170.0532 C.3     1  UNL1        0.2900
     17 O         139.0377  139.9197  168.7320 O.3     1  UNL1       -0.4643
     18 C         143.7940  138.0037  161.5659 C.3     1  UNL1        0.0730
     19 C         142.9061  137.4962  160.4688 C.3     1  UNL1        0.0294
     20 C         142.4753  138.4173  159.3659 C.3     1  UNL1        0.0666
     21 S         141.0163  138.6071  159.0743 S.3     1  UNL1       -0.0756
     22 C         139.1100  140.8688  161.5876 C.ar    1  UNL1        0.2029
     23 N         138.3869  139.5664  161.7635 N.ar    1  UNL1       -0.1250
     24 N         139.0130  138.5607  160.8434 N.ar    1  UNL1       -0.1220
     25 C         140.1230  139.2415  160.0989 C.ar    1  UNL1        0.1933
     26 N         140.1830  140.6679  160.5588 N.ar    1  UNL1       -0.2860
     27 C         141.1468  141.7106  160.0749 C.3     1  UNL1        0.1341
     28 C         141.0496  142.3354  163.7641 C.3     1  UNL1        0.0556
     29 C         139.7039  142.8216  163.3135 C.ar    1  UNL1        0.1001
     30 N         139.0136  144.0673  163.7843 N.ar    1  UNL1       -0.2085
     31 C         137.6955  144.1630  163.0748 C.ar    1  UNL1        0.2849
     32 O         137.5711  142.9765  162.1656 O.2     1  UNL1       -0.4283
     33 C         138.8125  142.1474  162.3131 C.ar    1  UNL1        0.1964
@<TRIPOS>BOND
     1    28    29    1
     2    29    30   ar
     3    30    31   ar
     4    31    32   ar
     5    32    33   ar
     6    33    22    1
     7    22    23   ar
     8    23    24   ar
     9    24    25   ar
    10    25    21    1
    11    21    20    1
    12    20    19    1
    13    19    18    1
    14    18     1    1
    15     1     2    1
    16     2     3    1
    17     3     4    1
    18     4     5   ar
    19     5     6   ar
    20     6     7   ar
    21     7     8   ar
    22     8     9   ar
    23     9    10    1
    24    10    11    1
    25     7    12    1
    26    12    13    1
    27    12    14   am
    28    14    15    2
    29    14    16    1
    30    16    17    1
    31    25    26   ar
    32    26    27    1
    33    33    29   ar
    34    26    22   ar
    35    11     1    1
    36     9     4   ar
    37    17     6    1
@<TRIPOS>MOLECULE
*****
 33 37 0 0 0
SMALL
GASTEIGER

@<TRIPOS>ATOM
      1 N         142.8485  138.3119  162.6471 N.3     1  UNL1       -0.2720
      2 C         141.3782  138.0919  162.8469 C.3     1  UNL1        0.0768
      3 C         140.5433  138.3934  164.0562 C.3     1  UNL1        0.0434
      4 C         140.9725  138.9892  165.3640 C.ar    1  UNL1       -0.0216
      5 C         139.8167  139.1235  166.3107 C.ar    1  UNL1        0.0337
      6 C         140.0309  139.6994  167.6790 C.ar    1  UNL1        0.1525
      7 C         141.4010  140.1410  168.1009 C.ar    1  UNL1        0.0878
      8 C         142.5568  140.0067  167.1543 C.ar    1  UNL1        0.0135
      9 C         142.3426  139.4308  165.7859 C.ar    1  UNL1       -0.0233
     10 C         143.6218  139.3856  165.0039 C.3     1  UNL1        0.0434
     11 C         143.8469  138.8876  163.6070 C.3     1  UNL1        0.0768
     12 N         141.6152  140.7168  169.4693 N.am    1  UNL1       -0.2512
     13 C         142.9853  141.1584  169.8910 C.3     1  UNL1        0.1202
     14 C         140.4594  140.8511  170.4158 C.2     1  UNL1        0.2740
     15 O         140.6737  141.4270  171.7842 O.2     1  UNL1       -0.2705
     16 C         139.0893  140.4095  169.9941 C.3     1  UNL1        0.2900
     17 O         138.8751  139.8337  168.6256 O.3     1  UNL1       -0.4643
     18 C         143.3920  137.9018  161.3105 C.3     1  UNL1        0.0730
     19 C         143.1948  138.7882  160.1167 C.3     1  UNL1        0.0294
     20 C         143.9759  140.0628  159.9917 C.3     1  UNL1        0.0666
     21 S         143.3388  141.2760  159.3815 S.3     1  UNL1       -0.0756
     22 C         141.1505  143.4824  161.7072 C.ar    1  UNL1        0.2029
     23 N         142.3540  144.3589  161.5243 N.ar    1  UNL1       -0.1250
     24 N         143.3202  143.6390  160.6309 N.ar    1  UNL1       -0.1220
     25 C         142.7139  142.3176  160.2615 C.ar    1  UNL1        0.1933
     26 N         141.3730  142.2209  160.9267 N.ar    1  UNL1       -0.2860
     27 C         140.4214  141.0654  160.8287 C.3     1  UNL1        0.1341
     28 C         140.9415  143.3519  164.9612 C.3     1  UNL1        0.0556
     29 C         139.8415  143.7500  164.0223 C.ar    1  UNL1        0.1001
     30 N         138.4523  144.1579  164.4143 N.ar    1  UNL1       -0.2085
     31 C         137.6898  144.4700  163.1608 C.ar    1  UNL1        0.2849
     32 O         138.6077  144.2550  161.9942 O.2     1  UNL1       -0.4283
     33 C         139.9376  143.8099  162.5265 C.ar    1  UNL1        0.1964
@<TRIPOS>BOND
     1    28    29    1
     2    29    30   ar
     3    30    31   ar
     4    31    32   ar
     5    32    33   ar
     6    33    22    1
     7    22    23   ar
     8    23    24   ar
     9    24    25   ar
    10    25    21    1
    11    21    20    1
    12    20    19    1
    13    19    18    1
    14    18     1    1
    15     1     2    1
    16     2     3    1
    17     3     4    1
    18     4     5   ar
    19     5     6   ar
    20     6     7   ar
    21     7     8   ar
    22     8     9   ar
    23     9    10    1
    24    10    11    1
    25     7    12    1
    26    12    13    1
    27    12    14   am
    28    14    15    2
    29    14    16    1
    30    16    17    1
    31    25    26   ar
    32    26    27    1
    33    33    29   ar
    34    26    22   ar
    35    11     1    1
    36     9     4   ar
    37    17     6    1
@<TRIPOS>MOLECULE
*****
 33 37 0 0 0
SMALL
GASTEIGER

@<TRIPOS>ATOM
      1 N         142.1676  143.2314  162.4078 N.3     1  UNL1       -0.2720
      2 C         143.0066  142.0159  162.6703 C.3     1  UNL1        0.0768
      3 C         143.1661  141.2480  163.9490 C.3     1  UNL1        0.0434
      4 C         142.5262  141.5058  165.2807 C.ar    1  UNL1       -0.0216
      5 C         142.9574  140.4943  166.3010 C.ar    1  UNL1        0.0337
      6 C         142.4311  140.5722  167.7035 C.ar    1  UNL1        0.1525
      7 C         141.4734  141.6616  168.0858 C.ar    1  UNL1        0.0878
      8 C         141.0421  142.6732  167.0655 C.ar    1  UNL1        0.0135
      9 C         141.5685  142.5953  165.6630 C.ar    1  UNL1       -0.0233
     10 C         141.0144  143.6959  164.8078 C.3     1  UNL1        0.0434
     11 C         141.2810  143.9790  163.3591 C.3     1  UNL1        0.0768
     12 N         140.9470  141.7395  169.4882 N.am    1  UNL1       -0.2512
     13 C         139.9894  142.8290  169.8704 C.3     1  UNL1        0.1202
     14 C         141.3783  140.7280  170.5083 C.2     1  UNL1        0.2740
     15 O         140.8520  140.8059  171.9108 O.2     1  UNL1       -0.2705
     16 C         142.3360  139.6386  170.1262 C.3     1  UNL1        0.2900
     17 O         142.8623  139.5607  168.7237 O.3     1  UNL1       -0.4643
     18 C         142.2225  143.7704  161.0091 C.3     1  UNL1        0.0730
     19 C         141.0555  144.5300  160.4516 C.3     1  UNL1        0.0294
     20 C         140.4059  144.0779  159.1773 C.3     1  UNL1        0.0666
     21 S         139.3140  143.0502  159.2157 S.3     1  UNL1       -0.0756
     22 C         138.5766  141.1580  162.5235 C.ar    1  UNL1        0.2029
     23 N         137.5715  142.2692  162.5949 N.ar    1  UNL1       -0.1250
     24 N         137.7254  143.1132  161.3645 N.ar    1  UNL1       -0.1220
     25 C         138.8256  142.5237  160.5326 C.ar    1  UNL1        0.1933
     26 N         139.3516  141.3154  161.2489 N.ar    1  UNL1       -0.2860
     27 C         140.4585  140.4213  160.7740 C.3     1  UNL1        0.1341
     28 C         138.1479  137.9587  162.0436 C.3     1  UNL1        0.0556
     29 C         138.5753  138.6084  163.3263 C.ar    1  UNL1        0.1001
     30 N         138.8805  137.9017  164.6136 N.ar    1  UNL1       -0.2085
     31 C         139.2662  138.9354  165.6298 C.ar    1  UNL1        0.2849
     32 O         139.1993  140.2811  164.9705 O.2     1  UNL1       -0.4283
     33 C         138.7723  140.0791  163.5468 C.ar    1  UNL1        0.1964
@<TRIPOS>BOND
     1    28    29    1
     2    29    30   ar
     3    30    31   ar
     4    31    32   ar
     5    32    33   ar
     6    33    22    1
     7    22    23   ar
     8    23    24   ar
     9    24    25   ar
    10    25    21    1
    11    21    20    1
    12    20    19    1
    13    19    18    1
    14    18     1    1
    15     1     2    1
    16     2     3    1
    17     3     4    1
    18     4     5   ar
    19     5     6   ar
    20     6     7   ar
    21     7     8   ar
    22     8     9   ar
    23     9    10    1
    24    10    11    1
    25     7    12    1
    26    12    13    1
    27    12    14   am
    28    14    15    2
    29    14    16    1
    30    16    17    1
    31    25    26   ar
    32    26    27    1
    33    33    29   ar
    34    26    22   ar
    35    11     1    1
    36     9     4   ar
    37    17     6    1
@<TRIPOS>MOLECULE
*****
 33 37 0 0 0
SMALL
GASTEIGER

@<TRIPOS>ATOM
      1 N         143.1607  138.5452  162.8221 N.3     1  UNL1       -0.2720
      2 C         141.7758  138.0455  163.1092 C.3     1  UNL1        0.0768
      3 C         140.9179  138.3066  164.3117 C.3     1  UNL1        0.0434
      4 C         141.2331  139.1318  165.5239 C.ar    1  UNL1       -0.0216
      5 C         140.0928  139.1316  166.4986 C.ar    1  UNL1        0.0337
      6 C         140.2035  139.8993  167.7825 C.ar    1  UNL1        0.1525
      7 C         141.4542  140.6674  168.0917 C.ar    1  UNL1        0.0878
      8 C         142.5945  140.6677  167.1170 C.ar    1  UNL1        0.0135
      9 C         142.4839  139.8999  165.8332 C.ar    1  UNL1       -0.0233
     10 C         143.7285  140.0324  165.0065 C.3     1  UNL1        0.0434
     11 C         144.0296  139.4294  163.6664 C.3     1  UNL1        0.0768
     12 N         141.5648  141.4352  169.3756 N.am    1  UNL1       -0.2512
     13 C         142.8157  142.2032  169.6847 C.3     1  UNL1        0.1202
     14 C         140.4247  141.4349  170.3502 C.2     1  UNL1        0.2740
     15 O         140.5353  142.2026  171.6340 O.2     1  UNL1       -0.2705
     16 C         139.1738  140.6668  170.0410 C.3     1  UNL1        0.2900
     17 O         139.0633  139.8991  168.7571 O.3     1  UNL1       -0.4643
     18 C         143.7551  138.1021  161.5181 C.3     1  UNL1        0.0730
     19 C         143.4043  138.8231  160.2504 C.3     1  UNL1        0.0294
     20 C         144.0532  140.1372  159.9307 C.3     1  UNL1        0.0666
     21 S         143.2075  141.3527  159.6917 S.3     1  UNL1       -0.0756
     22 C         141.8589  143.3511  162.7336 C.ar    1  UNL1        0.2029
     23 N         143.0773  144.1508  162.3786 N.ar    1  UNL1       -0.1250
     24 N         143.7307  143.4995  161.1959 N.ar    1  UNL1       -0.1220
     25 C         142.9162  142.2973  160.8200 C.ar    1  UNL1        0.1933
     26 N         141.7594  142.2056  161.7703 N.ar    1  UNL1       -0.2860
     27 C         140.6906  141.1532  161.7593 C.3     1  UNL1        0.1341
     28 C         139.3725  145.4625  162.6352 C.3     1  UNL1        0.0556
     29 C         139.7642  144.6158  163.8098 C.ar    1  UNL1        0.1001
     30 N         139.0819  144.5909  165.1453 N.ar    1  UNL1       -0.2085
     31 C         139.8031  143.6050  166.0160 C.ar    1  UNL1        0.2849
     32 O         140.9311  143.0206  165.2185 O.2     1  UNL1       -0.4283
     33 C         140.9071  143.6452  163.8550 C.ar    1  UNL1        0.1964
@<TRIPOS>BOND
     1    28    29    1
     2    29    30   ar
     3    30    31   ar
     4    31    32   ar
     5    32    33   ar
     6    33    22    1
     7    22    23   ar
     8    23    24   ar
     9    24    25   ar
    10    25    21    1
    11    21    20    1
    12    20    19    1
    13    19    18    1
    14    18     1    1
    15     1     2    1
    16     2     3    1
    17     3     4    1
    18     4     5   ar
    19     5     6   ar
    20     6     7   ar
    21     7     8   ar
    22     8     9   ar
    23     9    10    1
    24    10    11    1
    25     7    12    1
    26    12    13    1
    27    12    14   am
    28    14    15    2
    29    14    16    1
    30    16    17    1
    31    25    26   ar
    32    26    27    1
    33    33    29   ar
    34    26    22   ar
    35    11     1    1
    36     9     4   ar
    37    17     6    1
@<TRIPOS>MOLECULE
*****
 33 37 0 0 0
SMALL
GASTEIGER

@<TRIPOS>ATOM
      1 N         140.5683  138.7592  162.1617 N.3     1  UNL1       -0.2720
      2 C         139.2272  138.5021  162.7825 C.3     1  UNL1        0.0768
      3 C         138.8010  138.7061  164.2062 C.3     1  UNL1        0.0434
      4 C         139.6106  139.2176  165.3606 C.ar    1  UNL1       -0.0216
      5 C         138.7980  139.2677  166.6204 C.ar    1  UNL1        0.0337
      6 C         139.4211  139.7516  167.8962 C.ar    1  UNL1        0.1525
      7 C         140.8569  140.1854  167.9122 C.ar    1  UNL1        0.0878
      8 C         141.6696  140.1354  166.6523 C.ar    1  UNL1        0.0135
      9 C         141.0465  139.6515  165.3766 C.ar    1  UNL1       -0.0233
     10 C         142.0272  139.6809  164.2420 C.3     1  UNL1        0.0434
     11 C         141.8144  139.2838  162.8113 C.3     1  UNL1        0.0768
     12 N         141.4801  140.6693  169.1879 N.am    1  UNL1       -0.2512
     13 C         142.9159  141.1031  169.2038 C.3     1  UNL1        0.1202
     14 C         140.6674  140.7194  170.4476 C.2     1  UNL1        0.2740
     15 O         141.2905  141.2033  171.7234 O.2     1  UNL1       -0.2705
     16 C         139.2316  140.2855  170.4318 C.3     1  UNL1        0.2900
     17 O         138.6085  139.8017  169.1559 O.3     1  UNL1       -0.4643
     18 C         140.6777  138.4509  160.6978 C.3     1  UNL1        0.0730
     19 C         139.4390  138.3506  159.8579 C.3     1  UNL1        0.0294
     20 C         139.0758  139.4644  158.9210 C.3     1  UNL1        0.0666
     21 S         138.1473  140.5522  159.3734 S.3     1  UNL1       -0.0756
     22 C         139.6238  142.7286  162.2280 C.ar    1  UNL1        0.2029
     23 N         138.2754  142.3884  162.7905 N.ar    1  UNL1       -0.1250
     24 N         137.5583  141.5318  161.7896 N.ar    1  UNL1       -0.1220
     25 C         138.4634  141.3424  160.6085 C.ar    1  UNL1        0.1933
     26 N         139.7398  142.0821  160.8795 N.ar    1  UNL1       -0.2860
     27 C         140.9246  142.1613  159.9628 C.3     1  UNL1        0.1341
     28 C         139.8868  145.9760  162.0427 C.3     1  UNL1        0.0556
     29 C         140.7928  145.0605  162.8115 C.ar    1  UNL1        0.1001
     30 N         141.9788  145.4769  163.6300 N.ar    1  UNL1       -0.2085
     31 C         142.5908  144.2416  164.2211 C.ar    1  UNL1        0.2849
     32 O         141.7831  143.0617  163.7678 O.2     1  UNL1       -0.4283
     33 C         140.6719  143.5677  162.8966 C.ar    1  UNL1        0.1964
@<TRIPOS>BOND
     1    28    29    1
     2    29    30   ar
     3    30    31   ar
     4    31    32   ar
     5    32    33   ar
     6    33    22    1
     7    22    23   ar
     8    23    24   ar
     9    24    25   ar
    10    25    21    1
    11    21    20    1
    12    20    19    1
    13    19    18    1
    14    18     1    1
    15     1     2    1
    16     2     3    1
    17     3     4    1
    18     4     5   ar
    19     5     6   ar
    20     6     7   ar
    21     7     8   ar
    22     8     9   ar
    23     9    10    1
    24    10    11    1
    25     7    12    1
    26    12    13    1
    27    12    14   am
    28    14    15    2
    29    14    16    1
    30    16    17    1
    31    25    26   ar
    32    26    27    1
    33    33    29   ar
    34    26    22   ar
    35    11     1    1
    36     9     4   ar
    37    17     6    1
@<TRIPOS>MOLECULE
*****
 33 37 0 0 0
SMALL
GASTEIGER

@<TRIPOS>ATOM
      1 N         140.7134  144.6746  162.1980 N.3     1  UNL1       -0.2720
      2 C         139.8367  145.1636  163.3126 C.3     1  UNL1        0.0768
      3 C         139.6981  144.6162  164.7023 C.3     1  UNL1        0.0434
      4 C         140.4018  143.4448  165.3205 C.ar    1  UNL1       -0.0216
      5 C         139.9714  143.2348  166.7421 C.ar    1  UNL1        0.0337
      6 C         140.5572  142.1113  167.5449 C.ar    1  UNL1        0.1525
      7 C         141.5734  141.1977  166.9263 C.ar    1  UNL1        0.0878
      8 C         142.0039  141.4077  165.5047 C.ar    1  UNL1        0.0135
      9 C         141.4181  142.5312  164.7019 C.ar    1  UNL1       -0.0233
     10 C         141.9815  142.5636  163.3121 C.3     1  UNL1        0.0434
     11 C         141.6679  143.5175  162.1978 C.3     1  UNL1        0.0768
     12 N         142.1593  140.0742  167.7291 N.am    1  UNL1       -0.2512
     13 C         143.1755  139.1607  167.1103 C.3     1  UNL1        0.1202
     14 C         141.7288  139.8642  169.1505 C.2     1  UNL1        0.2740
     15 O         142.3146  138.7407  169.9533 O.2     1  UNL1       -0.2705
     16 C         140.7126  140.7777  169.7692 C.3     1  UNL1        0.2900
     17 O         140.1268  141.9012  168.9663 O.3     1  UNL1       -0.4643
     18 C         140.6237  145.4445  160.9138 C.3     1  UNL1        0.0730
     19 C         140.9252  144.7666  159.6102 C.3     1  UNL1        0.0294
     20 C         139.8244  144.1006  158.8389 C.3     1  UNL1        0.0666
     21 S         139.4915  142.6613  159.0983 S.3     1  UNL1       -0.0756
     22 C         138.4451  141.0717  162.4812 C.ar    1  UNL1        0.2029
     23 N         137.4567  142.1948  162.3705 N.ar    1  UNL1       -0.1250
     24 N         137.7285  142.9268  161.0899 N.ar    1  UNL1       -0.1220
     25 C         138.8847  142.2563  160.4090 C.ar    1  UNL1        0.1933
     26 N         139.3275  141.1099  161.2689 N.ar    1  UNL1       -0.2860
     27 C         140.4550  140.1669  160.9691 C.3     1  UNL1        0.1341
     28 C         138.4438  137.8217  162.1857 C.3     1  UNL1        0.0556
     29 C         138.5345  138.5903  163.4708 C.ar    1  UNL1        0.1001
     30 N         138.6405  137.9998  164.8455 N.ar    1  UNL1       -0.2085
     31 C         138.7066  139.1288  165.8310 C.ar    1  UNL1        0.2849
     32 O         138.6415  140.4169  165.0653 O.2     1  UNL1       -0.4283
     33 C         138.5351  140.0842  163.6065 C.ar    1  UNL1        0.1964
@<TRIPOS>BOND
     1    28    29    1
     2    29    30   ar
     3    30    31   ar
     4    31    32   ar
     5    32    33   ar
     6    33    22    1
     7    22    23   ar
     8    23    24   ar
     9    24    25   ar
    10    25    21    1
    11    21    20    1
    12    20    19    1
    13    19    18    1
    14    18     1    1
    15     1     2    1
    16     2     3    1
    17     3     4    1
    18     4     5   ar
    19     5     6   ar
    20     6     7   ar
    21     7     8   ar
    22     8     9   ar
    23     9    10    1
    24    10    11    1
    25     7    12    1
    26    12    13    1
    27    12    14   am
    28    14    15    2
    29    14    16    1
    30    16    17    1
    31    25    26   ar
    32    26    27    1
    33    33    29   ar
    34    26    22   ar
    35    11     1    1
    36     9     4   ar
    37    17     6    1
@<TRIPOS>MOLECULE
*****
 33 37 0 0 0
SMALL
GASTEIGER

@<TRIPOS>ATOM
      1 N         142.7699  138.7684  163.1167 N.3     1  UNL1       -0.2720
      2 C         143.6666  139.9457  163.3624 C.3     1  UNL1        0.0768
      3 C         143.7546  140.8160  164.5810 C.3     1  UNL1        0.0434
      4 C         142.9679  140.7240  165.8547 C.ar    1  UNL1       -0.0216
      5 C         143.3693  141.7949  166.8253 C.ar    1  UNL1        0.0337
      6 C         142.7017  141.8809  168.1658 C.ar    1  UNL1        0.1525
      7 C         141.6325  140.8959  168.5357 C.ar    1  UNL1        0.0878
      8 C         141.2311  139.8250  167.5651 C.ar    1  UNL1        0.0135
      9 C         141.8987  139.7391  166.2246 C.ar    1  UNL1       -0.0233
     10 C         141.3523  138.6028  165.4120 C.3     1  UNL1        0.0434
     11 C         141.7401  138.1709  164.0289 C.3     1  UNL1        0.0768
     12 N         140.9649  140.9818  169.8762 N.am    1  UNL1       -0.2512
     13 C         139.8957  139.9968  170.2460 C.3     1  UNL1        0.1202
     14 C         141.3663  142.0527  170.8467 C.2     1  UNL1        0.2740
     15 O         140.6987  142.1386  172.1871 O.2     1  UNL1       -0.2705
     16 C         142.4355  143.0377  170.4769 C.3     1  UNL1        0.2900
     17 O         143.1031  142.9517  169.1364 O.3     1  UNL1       -0.4643
     18 C         142.9237  138.1006  161.7824 C.3     1  UNL1        0.0730
     19 C         142.3924  138.7635  160.5463 C.3     1  UNL1        0.0294
     20 C         141.0679  138.3440  159.9805 C.3     1  UNL1        0.0666
     21 S         139.9031  139.2883  160.0185 S.3     1  UNL1       -0.0756
     22 C         139.0699  141.1965  163.2942 C.ar    1  UNL1        0.2029
     23 N         138.1747  139.9995  163.4203 N.ar    1  UNL1       -0.1250
     24 N         138.3779  139.1390  162.2086 N.ar    1  UNL1       -0.1220
     25 C         139.3987  139.8042  161.3336 C.ar    1  UNL1        0.1933
     26 N         139.8263  141.0757  162.0045 N.ar    1  UNL1       -0.2860
     27 C         140.8336  142.0548  161.4782 C.3     1  UNL1        0.1341
     28 C         137.7205  144.1545  163.0121 C.3     1  UNL1        0.0556
     29 C         138.5677  143.6770  164.1543 C.ar    1  UNL1        0.1001
     30 N         138.9433  144.4754  165.3673 N.ar    1  UNL1       -0.2085
     31 C         139.7956  143.6092  166.2467 C.ar    1  UNL1        0.2849
     32 O         139.9468  142.2755  165.5771 O.2     1  UNL1       -0.4283
     33 C         139.1879  142.3174  164.2839 C.ar    1  UNL1        0.1964
@<TRIPOS>BOND
     1    28    29    1
     2    29    30   ar
     3    30    31   ar
     4    31    32   ar
     5    32    33   ar
     6    33    22    1
     7    22    23   ar
     8    23    24   ar
     9    24    25   ar
    10    25    21    1
    11    21    20    1
    12    20    19    1
    13    19    18    1
    14    18     1    1
    15     1     2    1
    16     2     3    1
    17     3     4    1
    18     4     5   ar
    19     5     6   ar
    20     6     7   ar
    21     7     8   ar
    22     8     9   ar
    23     9    10    1
    24    10    11    1
    25     7    12    1
    26    12    13    1
    27    12    14   am
    28    14    15    2
    29    14    16    1
    30    16    17    1
    31    25    26   ar
    32    26    27    1
    33    33    29   ar
    34    26    22   ar
    35    11     1    1
    36     9     4   ar
    37    17     6    1
