@<TRIPOS>MOLECULE
*****
 30 33 0 0 0
SMALL
GASTEIGER

@<TRIPOS>ATOM
      1 N         141.7012  139.4205  163.6308 N.pl3   1  UNL1       -0.2905
      2 C         142.3965  138.8458  164.8292 C.3     1  UNL1        0.0926
      3 C         142.0985  139.3820  166.1980 C.3     1  UNL1        0.0273
      4 C         141.1051  140.4929  166.3684 C.3     1  UNL1        0.0422
      5 C         140.4097  141.0676  165.1700 C.3     1  UNL1        0.0750
      6 N         139.4163  142.1785  165.3404 N.3     1  UNL1       -0.3206
      7 C         140.7078  140.5314  163.8012 C.3     1  UNL1        0.1079
      8 H         139.0441  142.4446  164.4288 H       1  UNL1        0.1189
      9 H         139.8756  142.9827  165.7680 H       1  UNL1        0.1189
     10 C         142.1588  136.8334  155.7031 C.3     1  UNL1        0.0523
     11 C         141.8607  137.3696  157.0719 C.ar    1  UNL1        0.0658
     12 C         140.5297  137.9999  157.3571 C.ar    1  UNL1        0.0773
     13 C         140.2316  138.5361  158.7258 C.ar    1  UNL1        0.2830
     14 O         138.9006  139.1663  159.0110 O.2     1  UNL1       -0.2651
     15 N         141.2645  138.4421  159.8095 N.ar    1  UNL1       -0.1755
     16 N         140.9664  138.9783  161.1783 N.ar    1  UNL1       -0.1461
     17 C         141.9993  138.8843  162.2619 C.ar    1  UNL1        0.1521
     18 C         143.3303  138.2541  161.9768 C.ar    1  UNL1        0.0392
     19 C         143.6284  137.7179  160.6080 C.ar    1  UNL1        0.0418
     20 C         142.5955  137.8119  159.5244 C.ar    1  UNL1        0.1667
     21 N         142.8936  137.2756  158.1555 N.ar    1  UNL1       -0.2306
     22 C         140.8070  141.0291  167.7372 C.ar    1  UNL1        0.0087
     23 C         141.6646  142.1122  168.3216 C.ar    1  UNL1        0.0300
     24 C         141.3665  142.6484  169.6904 C.ar    1  UNL1        0.1672
     25 F         142.2241  143.7315  170.2747 F       1  UNL1       -0.2018
     26 C         140.2109  142.1014  170.4749 C.ar    1  UNL1        0.1696
     27 F         139.9129  142.6376  171.8437 F       1  UNL1       -0.2017
     28 C         139.3534  141.0183  169.8906 C.ar    1  UNL1        0.0612
     29 C         139.6514  140.4821  168.5217 C.ar    1  UNL1        0.1386
     30 F         138.7939  139.3990  167.9373 F       1  UNL1       -0.2044
@<TRIPOS>BOND
     1    10    11    1
     2    11    12   ar
     3    12    13   ar
     4    13    14    2
     5    13    15   ar
     6    15    16   ar
     7    16    17   ar
     8    17     1    1
     9     1     2    1
    10     2     3    1
    11     3     4    1
    12     4    22    1
    13    22    23   ar
    14    23    24   ar
    15    24    25    1
    16    24    26   ar
    17    26    27    1
    18    26    28   ar
    19    28    29   ar
    20    29    30    1
    21     4     5    1
    22     5     6    1
    23     5     7    1
    24    17    18   ar
    25    18    19   ar
    26    19    20   ar
    27    20    21   ar
    28    21    11   ar
    29    20    15   ar
    30     7     1    1
    31    29    22   ar
    32     6     8    1
    33     6     9    1
@<TRIPOS>MOLECULE
*****
 30 33 0 0 0
SMALL
GASTEIGER

@<TRIPOS>ATOM
      1 N         142.7056  142.6657  162.8017 N.pl3   1  UNL1       -0.2905
      2 C         143.9737  142.1223  163.3905 C.3     1  UNL1        0.0926
      3 C         144.0125  141.7021  164.8299 C.3     1  UNL1        0.0273
      4 C         142.7832  141.8254  165.6806 C.3     1  UNL1        0.0422
      5 C         141.5151  142.3689  165.0919 C.3     1  UNL1        0.0750
      6 N         140.2859  142.4922  165.9426 N.3     1  UNL1       -0.3206
      7 C         141.4763  142.7891  163.6524 C.3     1  UNL1        0.1079
      8 H         139.5235  142.8768  165.3847 H       1  UNL1        0.1189
      9 H         140.4777  143.1122  166.7295 H       1  UNL1        0.1189
     10 C         141.4780  145.7477  155.1372 C.3     1  UNL1        0.0523
     11 C         141.5168  145.3276  156.5767 C.ar    1  UNL1        0.0658
     12 C         140.5218  145.8888  157.5488 C.ar    1  UNL1        0.0773
     13 C         140.5606  145.4687  158.9882 C.ar    1  UNL1        0.2830
     14 O         139.5656  146.0299  159.9604 O.2     1  UNL1       -0.2651
     15 N         141.5943  144.4873  159.4556 N.ar    1  UNL1       -0.1755
     16 N         141.6331  144.0672  160.8950 N.ar    1  UNL1       -0.1461
     17 C         142.6668  143.0859  161.3623 C.ar    1  UNL1        0.1521
     18 C         143.6618  142.5247  160.3901 C.ar    1  UNL1        0.0392
     19 C         143.6230  142.9448  158.9507 C.ar    1  UNL1        0.0418
     20 C         142.5893  143.9261  158.4834 C.ar    1  UNL1        0.1667
     21 N         142.5505  144.3463  157.0439 N.ar    1  UNL1       -0.2306
     22 C         142.8221  141.4053  167.1200 C.ar    1  UNL1        0.0087
     23 C         143.1579  142.4069  168.1849 C.ar    1  UNL1        0.0300
     24 C         143.1967  141.9868  169.6243 C.ar    1  UNL1        0.1672
     25 F         143.5326  142.9884  170.6892 F       1  UNL1       -0.2018
     26 C         142.8997  140.5649  169.9989 C.ar    1  UNL1        0.1696
     27 F         142.9386  140.1448  171.4383 F       1  UNL1       -0.2017
     28 C         142.5639  139.5633  168.9340 C.ar    1  UNL1        0.0612
     29 C         142.5251  139.9835  167.4946 C.ar    1  UNL1        0.1386
     30 F         142.1892  138.9819  166.4297 F       1  UNL1       -0.2044
@<TRIPOS>BOND
     1    10    11    1
     2    11    12   ar
     3    12    13   ar
     4    13    14    2
     5    13    15   ar
     6    15    16   ar
     7    16    17   ar
     8    17     1    1
     9     1     2    1
    10     2     3    1
    11     3     4    1
    12     4    22    1
    13    22    23   ar
    14    23    24   ar
    15    24    25    1
    16    24    26   ar
    17    26    27    1
    18    26    28   ar
    19    28    29   ar
    20    29    30    1
    21     4     5    1
    22     5     6    1
    23     5     7    1
    24    17    18   ar
    25    18    19   ar
    26    19    20   ar
    27    20    21   ar
    28    21    11   ar
    29    20    15   ar
    30     7     1    1
    31    29    22   ar
    32     6     8    1
    33     6     9    1
@<TRIPOS>MOLECULE
*****
 30 33 0 0 0
SMALL
GASTEIGER

@<TRIPOS>ATOM
      1 N         142.3373  139.3935  162.7975 N.pl3   1  UNL1       -0.2905
      2 C         142.0945  138.1734  163.6355 C.3     1  UNL1        0.0926
      3 C         141.7645  138.3172  165.0917 C.3     1  UNL1        0.0273
      4 C         141.6772  139.6812  165.7098 C.3     1  UNL1        0.0422
      5 C         141.9201  140.9013  164.8718 C.3     1  UNL1        0.0750
      6 N         141.8328  142.2652  165.4898 N.3     1  UNL1       -0.3206
      7 C         142.2501  140.7575  163.4156 C.3     1  UNL1        0.1079
      8 H         142.0251  142.9728  164.7807 H       1  UNL1        0.1189
      9 H         142.5180  142.3423  166.2416 H       1  UNL1        0.1189
     10 C         144.7152  139.7730  154.8004 C.3     1  UNL1        0.0523
     11 C         144.3852  139.9168  156.2566 C.ar    1  UNL1        0.0658
     12 C         144.7830  141.1595  156.9966 C.ar    1  UNL1        0.0773
     13 C         144.4530  141.3034  158.4527 C.ar    1  UNL1        0.2830
     14 O         144.8508  142.5461  159.1927 O.2     1  UNL1       -0.2651
     15 N         143.7251  140.2046  159.1690 N.ar    1  UNL1       -0.1755
     16 N         143.3951  140.3485  160.6251 N.ar    1  UNL1       -0.1461
     17 C         142.6673  139.2497  161.3413 C.ar    1  UNL1        0.1521
     18 C         142.2695  138.0070  160.6013 C.ar    1  UNL1        0.0392
     19 C         142.5995  137.8631  159.1452 C.ar    1  UNL1        0.0418
     20 C         143.3273  138.9619  158.4290 C.ar    1  UNL1        0.1667
     21 N         143.6574  138.8181  156.9728 N.ar    1  UNL1       -0.2306
     22 C         141.3472  139.8250  167.1659 C.ar    1  UNL1        0.0087
     23 C         142.4266  139.6805  168.1974 C.ar    1  UNL1        0.0300
     24 C         142.0966  139.8243  169.6536 C.ar    1  UNL1        0.1672
     25 F         143.1760  139.6799  170.6851 F       1  UNL1       -0.2018
     26 C         140.6871  140.1126  170.0783 C.ar    1  UNL1        0.1696
     27 F         140.3571  140.2564  171.5344 F       1  UNL1       -0.2017
     28 C         139.6077  140.2571  169.0468 C.ar    1  UNL1        0.0612
     29 C         139.9378  140.1132  167.5906 C.ar    1  UNL1        0.1386
     30 F         138.8584  140.2577  166.5591 F       1  UNL1       -0.2044
@<TRIPOS>BOND
     1    10    11    1
     2    11    12   ar
     3    12    13   ar
     4    13    14    2
     5    13    15   ar
     6    15    16   ar
     7    16    17   ar
     8    17     1    1
     9     1     2    1
    10     2     3    1
    11     3     4    1
    12     4    22    1
    13    22    23   ar
    14    23    24   ar
    15    24    25    1
    16    24    26   ar
    17    26    27    1
    18    26    28   ar
    19    28    29   ar
    20    29    30    1
    21     4     5    1
    22     5     6    1
    23     5     7    1
    24    17    18   ar
    25    18    19   ar
    26    19    20   ar
    27    20    21   ar
    28    21    11   ar
    29    20    15   ar
    30     7     1    1
    31    29    22   ar
    32     6     8    1
    33     6     9    1
@<TRIPOS>MOLECULE
*****
 30 33 0 0 0
SMALL
GASTEIGER

@<TRIPOS>ATOM
      1 N         141.9741  142.5085  163.5084 N.pl3   1  UNL1       -0.2905
      2 C         143.0145  142.8417  164.5362 C.3     1  UNL1        0.0926
      3 C         142.7872  142.4870  165.9758 C.3     1  UNL1        0.0273
      4 C         141.5194  141.7991  166.3876 C.3     1  UNL1        0.0422
      5 C         140.4790  141.4658  165.3598 C.3     1  UNL1        0.0750
      6 N         139.2112  140.7779  165.7715 N.3     1  UNL1       -0.3206
      7 C         140.7063  141.8206  163.9201 C.3     1  UNL1        0.1079
      8 H         138.6229  140.6300  164.9515 H       1  UNL1        0.1189
      9 H         138.7135  141.3581  166.4469 H       1  UNL1        0.1189
     10 C         142.2637  145.3312  155.6535 C.3     1  UNL1        0.0523
     11 C         142.0364  144.9765  157.0932 C.ar    1  UNL1        0.0658
     12 C         140.9618  145.6711  157.8760 C.ar    1  UNL1        0.0773
     13 C         140.7344  145.3164  159.3156 C.ar    1  UNL1        0.2830
     14 O         139.6598  146.0109  160.0985 O.2     1  UNL1       -0.2651
     15 N         141.5816  144.2671  159.9724 N.ar    1  UNL1       -0.1755
     16 N         141.3542  143.9124  161.4120 N.ar    1  UNL1       -0.1461
     17 C         142.2014  142.8632  162.0687 C.ar    1  UNL1        0.1521
     18 C         143.2760  142.1687  161.2859 C.ar    1  UNL1        0.0392
     19 C         143.5034  142.5233  159.8463 C.ar    1  UNL1        0.0418
     20 C         142.6562  143.5726  159.1896 C.ar    1  UNL1        0.1667
     21 N         142.8836  143.9273  157.7499 N.ar    1  UNL1       -0.2306
     22 C         141.2921  141.4444  167.8272 C.ar    1  UNL1        0.0087
     23 C         141.7909  140.1360  168.3651 C.ar    1  UNL1        0.0300
     24 C         141.5636  139.7813  169.8047 C.ar    1  UNL1        0.1672
     25 F         142.0625  138.4729  170.3426 F       1  UNL1       -0.2018
     26 C         140.8374  140.7350  170.7065 C.ar    1  UNL1        0.1696
     27 F         140.6101  140.3803  172.1461 F       1  UNL1       -0.2017
     28 C         140.3386  142.0434  170.1686 C.ar    1  UNL1        0.0612
     29 C         140.5660  142.3981  168.7290 C.ar    1  UNL1        0.1386
     30 F         140.0671  143.7064  168.1911 F       1  UNL1       -0.2044
@<TRIPOS>BOND
     1    10    11    1
     2    11    12   ar
     3    12    13   ar
     4    13    14    2
     5    13    15   ar
     6    15    16   ar
     7    16    17   ar
     8    17     1    1
     9     1     2    1
    10     2     3    1
    11     3     4    1
    12     4    22    1
    13    22    23   ar
    14    23    24   ar
    15    24    25    1
    16    24    26   ar
    17    26    27    1
    18    26    28   ar
    19    28    29   ar
    20    29    30    1
    21     4     5    1
    22     5     6    1
    23     5     7    1
    24    17    18   ar
    25    18    19   ar
    26    19    20   ar
    27    20    21   ar
    28    21    11   ar
    29    20    15   ar
    30     7     1    1
    31    29    22   ar
    32     6     8    1
    33     6     9    1
@<TRIPOS>MOLECULE
*****
 30 33 0 0 0
SMALL
GASTEIGER

@<TRIPOS>ATOM
      1 N         141.6274  143.4776  162.9998 N.pl3   1  UNL1       -0.2905
      2 C         140.7075  143.7692  164.1482 C.3     1  UNL1        0.0926
      3 C         140.9718  143.1615  165.4938 C.3     1  UNL1        0.0273
      4 C         142.1561  142.2622  165.6911 C.3     1  UNL1        0.0422
      5 C         143.0760  141.9706  164.5427 C.3     1  UNL1        0.0750
      6 N         144.2601  141.0713  164.7400 N.3     1  UNL1       -0.3206
      7 C         142.8116  142.5784  163.1970 C.3     1  UNL1        0.1079
      8 H         144.7712  140.9845  163.8615 H       1  UNL1        0.1189
      9 H         143.9413  140.1502  165.0403 H       1  UNL1        0.1189
     10 C         141.1128  146.0864  155.0827 C.3     1  UNL1        0.0523
     11 C         141.3772  145.4787  156.4284 C.ar    1  UNL1        0.0658
     12 C         142.4489  144.4410  156.5852 C.ar    1  UNL1        0.0773
     13 C         142.7133  143.8333  157.9308 C.ar    1  UNL1        0.2830
     14 O         143.7851  142.7956  158.0876 O.2     1  UNL1       -0.2651
     15 N         141.9059  144.2632  159.1197 N.ar    1  UNL1       -0.1755
     16 N         142.1703  143.6555  160.4653 N.ar    1  UNL1       -0.1461
     17 C         141.3630  144.0854  161.6541 C.ar    1  UNL1        0.1521
     18 C         140.2912  145.1230  161.4973 C.ar    1  UNL1        0.0392
     19 C         140.0268  145.7308  160.1517 C.ar    1  UNL1        0.0418
     20 C         140.8342  145.3009  158.9629 C.ar    1  UNL1        0.1667
     21 N         140.5698  145.9086  157.6172 N.ar    1  UNL1       -0.2306
     22 C         142.4204  141.6545  167.0368 C.ar    1  UNL1        0.0087
     23 C         143.2029  142.4179  168.0639 C.ar    1  UNL1        0.0300
     24 C         143.4672  141.8102  169.4095 C.ar    1  UNL1        0.1672
     25 F         144.2497  142.5736  170.4366 F       1  UNL1       -0.2018
     26 C         142.9491  140.4390  169.7281 C.ar    1  UNL1        0.1696
     27 F         143.2134  139.8314  171.0738 F       1  UNL1       -0.2017
     28 C         142.1666  139.6756  168.7010 C.ar    1  UNL1        0.0612
     29 C         141.9022  140.2834  167.3553 C.ar    1  UNL1        0.1386
     30 F         141.1198  139.5200  166.3283 F       1  UNL1       -0.2044
@<TRIPOS>BOND
     1    10    11    1
     2    11    12   ar
     3    12    13   ar
     4    13    14    2
     5    13    15   ar
     6    15    16   ar
     7    16    17   ar
     8    17     1    1
     9     1     2    1
    10     2     3    1
    11     3     4    1
    12     4    22    1
    13    22    23   ar
    14    23    24   ar
    15    24    25    1
    16    24    26   ar
    17    26    27    1
    18    26    28   ar
    19    28    29   ar
    20    29    30    1
    21     4     5    1
    22     5     6    1
    23     5     7    1
    24    17    18   ar
    25    18    19   ar
    26    19    20   ar
    27    20    21   ar
    28    21    11   ar
    29    20    15   ar
    30     7     1    1
    31    29    22   ar
    32     6     8    1
    33     6     9    1
@<TRIPOS>MOLECULE
*****
 30 33 0 0 0
SMALL
GASTEIGER

@<TRIPOS>ATOM
      1 N         139.6056  142.6165  162.1953 N.pl3   1  UNL1       -0.2905
      2 C         138.4283  142.8297  163.1001 C.3     1  UNL1        0.0926
      3 C         138.5576  142.5730  164.5722 C.3     1  UNL1        0.0273
      4 C         139.8642  142.1029  165.1397 C.3     1  UNL1        0.0422
      5 C         141.0414  141.8897  164.2350 C.3     1  UNL1        0.0750
      6 N         142.3480  141.4197  164.8024 N.3     1  UNL1       -0.3206
      7 C         140.9121  142.1465  162.7627 C.3     1  UNL1        0.1079
      8 H         143.0320  141.3293  164.0512 H       1  UNL1        0.1189
      9 H         142.2167  140.5144  165.2535 H       1  UNL1        0.1189
     10 C         139.8505  144.9053  154.1671 C.3     1  UNL1        0.0523
     11 C         139.9798  144.6485  155.6393 C.ar    1  UNL1        0.0658
     12 C         141.0008  145.3966  156.4443 C.ar    1  UNL1        0.0773
     13 C         141.1302  145.1398  157.9164 C.ar    1  UNL1        0.2830
     14 O         142.1512  145.8879  158.7214 O.2     1  UNL1       -0.2651
     15 N         140.2385  144.1349  158.5837 N.ar    1  UNL1       -0.1755
     16 N         140.3679  143.8782  160.0559 N.ar    1  UNL1       -0.1461
     17 C         139.4762  142.8733  160.7231 C.ar    1  UNL1        0.1521
     18 C         138.4553  142.1252  159.9181 C.ar    1  UNL1        0.0392
     19 C         138.3259  142.3820  158.4460 C.ar    1  UNL1        0.0418
     20 C         139.2175  143.3868  157.7788 C.ar    1  UNL1        0.1667
     21 N         139.0882  143.6436  156.3065 N.ar    1  UNL1       -0.2306
     22 C         139.9934  141.8462  166.6119 C.ar    1  UNL1        0.0087
     23 C         140.4228  142.9510  167.5311 C.ar    1  UNL1        0.0300
     24 C         140.5521  142.6942  169.0032 C.ar    1  UNL1        0.1672
     25 F         140.9815  143.7991  169.9224 F       1  UNL1       -0.2018
     26 C         140.2520  141.3325  169.5563 C.ar    1  UNL1        0.1696
     27 F         140.3812  141.0758  171.0284 F       1  UNL1       -0.2017
     28 C         139.8226  140.2277  168.6371 C.ar    1  UNL1        0.0612
     29 C         139.6933  140.4845  167.1649 C.ar    1  UNL1        0.1386
     30 F         139.2639  139.3797  166.2457 F       1  UNL1       -0.2044
@<TRIPOS>BOND
     1    10    11    1
     2    11    12   ar
     3    12    13   ar
     4    13    14    2
     5    13    15   ar
     6    15    16   ar
     7    16    17   ar
     8    17     1    1
     9     1     2    1
    10     2     3    1
    11     3     4    1
    12     4    22    1
    13    22    23   ar
    14    23    24   ar
    15    24    25    1
    16    24    26   ar
    17    26    27    1
    18    26    28   ar
    19    28    29   ar
    20    29    30    1
    21     4     5    1
    22     5     6    1
    23     5     7    1
    24    17    18   ar
    25    18    19   ar
    26    19    20   ar
    27    20    21   ar
    28    21    11   ar
    29    20    15   ar
    30     7     1    1
    31    29    22   ar
    32     6     8    1
    33     6     9    1
@<TRIPOS>MOLECULE
*****
 30 33 0 0 0
SMALL
GASTEIGER

@<TRIPOS>ATOM
      1 N         141.8699  142.5201  163.4859 N.pl3   1  UNL1       -0.2905
      2 C         140.5905  141.8525  163.8953 C.3     1  UNL1        0.0926
      3 C         140.3501  141.5116  165.3361 C.3     1  UNL1        0.0273
      4 C         141.3891  141.8382  166.3676 C.3     1  UNL1        0.0422
      5 C         142.6685  142.5058  165.9582 C.3     1  UNL1        0.0750
      6 N         143.7074  142.8324  166.9896 N.3     1  UNL1       -0.3206
      7 C         142.9088  142.8467  164.5173 C.3     1  UNL1        0.1079
      8 H         144.5054  143.2797  166.5385 H       1  UNL1        0.1189
      9 H         144.0131  141.9740  167.4480 H       1  UNL1        0.1189
     10 C         142.2584  145.2962  155.6187 C.3     1  UNL1        0.0523
     11 C         142.0180  144.9553  157.0596 C.ar    1  UNL1        0.0658
     12 C         140.9641  145.6862  157.8374 C.ar    1  UNL1        0.0773
     13 C         140.7237  145.3454  159.2782 C.ar    1  UNL1        0.2830
     14 O         139.6697  146.0762  160.0561 O.2     1  UNL1       -0.2651
     15 N         141.5372  144.2736  159.9413 N.ar    1  UNL1       -0.1755
     16 N         141.2968  143.9327  161.3821 N.ar    1  UNL1       -0.1461
     17 C         142.1103  142.8610  162.0450 C.ar    1  UNL1        0.1521
     18 C         143.1642  142.1301  161.2671 C.ar    1  UNL1        0.0392
     19 C         143.4046  142.4710  159.8263 C.ar    1  UNL1        0.0418
     20 C         142.5911  143.5427  159.1634 C.ar    1  UNL1        0.1667
     21 N         142.8315  143.8836  157.7225 N.ar    1  UNL1       -0.2306
     22 C         141.1487  141.4973  167.8084 C.ar    1  UNL1        0.0087
     23 C         140.4478  142.4757  168.7037 C.ar    1  UNL1        0.0300
     24 C         140.2074  142.1348  170.1445 C.ar    1  UNL1        0.1672
     25 F         139.5066  143.1131  171.0399 F       1  UNL1       -0.2018
     26 C         140.6678  140.8154  170.6900 C.ar    1  UNL1        0.1696
     27 F         140.4274  140.4745  172.1308 F       1  UNL1       -0.2017
     28 C         141.3686  139.8371  169.7947 C.ar    1  UNL1        0.0612
     29 C         141.6091  140.1781  168.3538 C.ar    1  UNL1        0.1386
     30 F         142.3099  139.1997  167.4584 F       1  UNL1       -0.2044
@<TRIPOS>BOND
     1    10    11    1
     2    11    12   ar
     3    12    13   ar
     4    13    14    2
     5    13    15   ar
     6    15    16   ar
     7    16    17   ar
     8    17     1    1
     9     1     2    1
    10     2     3    1
    11     3     4    1
    12     4    22    1
    13    22    23   ar
    14    23    24   ar
    15    24    25    1
    16    24    26   ar
    17    26    27    1
    18    26    28   ar
    19    28    29   ar
    20    29    30    1
    21     4     5    1
    22     5     6    1
    23     5     7    1
    24    17    18   ar
    25    18    19   ar
    26    19    20   ar
    27    20    21   ar
    28    21    11   ar
    29    20    15   ar
    30     7     1    1
    31    29    22   ar
    32     6     8    1
    33     6     9    1
@<TRIPOS>MOLECULE
*****
 30 33 0 0 0
SMALL
GASTEIGER

@<TRIPOS>ATOM
      1 N         140.3734  143.2581  163.1642 N.pl3   1  UNL1       -0.2905
      2 C         139.4927  143.9005  164.1946 C.3     1  UNL1        0.0926
      3 C         139.5615  143.4527  165.6245 C.3     1  UNL1        0.0273
      4 C         140.5112  142.3624  166.0241 C.3     1  UNL1        0.0422
      5 C         141.3919  141.7200  164.9937 C.3     1  UNL1        0.0750
      6 N         142.3414  140.6298  165.3932 N.3     1  UNL1       -0.3206
      7 C         141.3230  142.1679  163.5637 C.3     1  UNL1        0.1079
      8 H         142.8572  140.3106  164.5731 H       1  UNL1        0.1189
      9 H         141.8166  139.8500  165.7894 H       1  UNL1        0.1189
     10 C         139.2548  144.6929  155.0131 C.3     1  UNL1        0.0523
     11 C         139.3237  144.2450  156.4430 C.ar    1  UNL1        0.0658
     12 C         138.6184  142.9924  156.8714 C.ar    1  UNL1        0.0773
     13 C         138.6872  142.5445  158.3013 C.ar    1  UNL1        0.2830
     14 O         137.9819  141.2919  158.7296 O.2     1  UNL1       -0.2651
     15 N         139.4614  143.3492  159.3029 N.ar    1  UNL1       -0.1755
     16 N         139.5303  142.9013  160.7327 N.ar    1  UNL1       -0.1461
     17 C         140.3045  143.7060  161.7342 C.ar    1  UNL1        0.1521
     18 C         141.0098  144.9586  161.3059 C.ar    1  UNL1        0.0392
     19 C         140.9409  145.4065  159.8760 C.ar    1  UNL1        0.0418
     20 C         140.1668  144.6018  158.8745 C.ar    1  UNL1        0.1667
     21 N         140.0979  145.0497  157.4445 N.ar    1  UNL1       -0.2306
     22 C         140.5800  141.9145  167.4540 C.ar    1  UNL1        0.0087
     23 C         141.4498  142.6508  168.4294 C.ar    1  UNL1        0.0300
     24 C         141.5186  142.2029  169.8593 C.ar    1  UNL1        0.1672
     25 F         142.3884  142.9391  170.8348 F       1  UNL1       -0.2018
     26 C         140.7177  141.0188  170.3138 C.ar    1  UNL1        0.1696
     27 F         140.7866  140.5710  171.7437 F       1  UNL1       -0.2017
     28 C         139.8480  140.2826  169.3384 C.ar    1  UNL1        0.0612
     29 C         139.7791  140.7305  167.9084 C.ar    1  UNL1        0.1386
     30 F         138.9094  139.9943  166.9329 F       1  UNL1       -0.2044
@<TRIPOS>BOND
     1    10    11    1
     2    11    12   ar
     3    12    13   ar
     4    13    14    2
     5    13    15   ar
     6    15    16   ar
     7    16    17   ar
     8    17     1    1
     9     1     2    1
    10     2     3    1
    11     3     4    1
    12     4    22    1
    13    22    23   ar
    14    23    24   ar
    15    24    25    1
    16    24    26   ar
    17    26    27    1
    18    26    28   ar
    19    28    29   ar
    20    29    30    1
    21     4     5    1
    22     5     6    1
    23     5     7    1
    24    17    18   ar
    25    18    19   ar
    26    19    20   ar
    27    20    21   ar
    28    21    11   ar
    29    20    15   ar
    30     7     1    1
    31    29    22   ar
    32     6     8    1
    33     6     9    1
@<TRIPOS>MOLECULE
*****
 30 33 0 0 0
SMALL
GASTEIGER

@<TRIPOS>ATOM
      1 N         143.0795  139.6525  162.3638 N.pl3   1  UNL1       -0.2905
      2 C         144.2781  139.4496  163.2425 C.3     1  UNL1        0.0926
      3 C         144.1846  139.7250  164.7140 C.3     1  UNL1        0.0273
      4 C         142.8924  140.2031  165.3070 C.3     1  UNL1        0.0422
      5 C         141.6937  140.4060  164.4283 C.3     1  UNL1        0.0750
      6 N         140.4015  140.8841  165.0212 N.3     1  UNL1       -0.3206
      7 C         141.7873  140.1306  162.9567 C.3     1  UNL1        0.1079
      8 H         139.6995  140.9657  164.2856 H       1  UNL1        0.1189
      9 H         140.5441  141.7950  165.4576 H       1  UNL1        0.1189
     10 C         144.2155  139.2657  154.0988 C.3     1  UNL1        0.0523
     11 C         144.1219  139.5411  155.5704 C.ar    1  UNL1        0.0658
     12 C         144.6966  140.8065  156.1346 C.ar    1  UNL1        0.0773
     13 C         144.6030  141.0819  157.6061 C.ar    1  UNL1        0.2830
     14 O         145.1777  142.3474  158.1704 O.2     1  UNL1       -0.2651
     15 N         143.9348  140.0918  158.5135 N.ar    1  UNL1       -0.1755
     16 N         143.8413  140.3672  159.9850 N.ar    1  UNL1       -0.1461
     17 C         143.1730  139.3771  160.8923 C.ar    1  UNL1        0.1521
     18 C         142.5983  138.1117  160.3280 C.ar    1  UNL1        0.0392
     19 C         142.6919  137.8363  158.8565 C.ar    1  UNL1        0.0418
     20 C         143.3601  138.8264  157.9492 C.ar    1  UNL1        0.1667
     21 N         143.4537  138.5510  156.4777 N.ar    1  UNL1       -0.2306
     22 C         142.7989  140.4785  166.7785 C.ar    1  UNL1        0.0087
     23 C         142.5625  139.3508  167.7389 C.ar    1  UNL1        0.0300
     24 C         142.4690  139.6261  169.2105 C.ar    1  UNL1        0.1672
     25 F         142.2326  138.4985  170.1709 F       1  UNL1       -0.2018
     26 C         142.6118  141.0292  169.7216 C.ar    1  UNL1        0.1696
     27 F         142.5183  141.3045  171.1931 F       1  UNL1       -0.2017
     28 C         142.8482  142.1568  168.7611 C.ar    1  UNL1        0.0612
     29 C         142.9417  141.8814  167.2895 C.ar    1  UNL1        0.1386
     30 F         143.1781  143.0091  166.3290 F       1  UNL1       -0.2044
@<TRIPOS>BOND
     1    10    11    1
     2    11    12   ar
     3    12    13   ar
     4    13    14    2
     5    13    15   ar
     6    15    16   ar
     7    16    17   ar
     8    17     1    1
     9     1     2    1
    10     2     3    1
    11     3     4    1
    12     4    22    1
    13    22    23   ar
    14    23    24   ar
    15    24    25    1
    16    24    26   ar
    17    26    27    1
    18    26    28   ar
    19    28    29   ar
    20    29    30    1
    21     4     5    1
    22     5     6    1
    23     5     7    1
    24    17    18   ar
    25    18    19   ar
    26    19    20   ar
    27    20    21   ar
    28    21    11   ar
    29    20    15   ar
    30     7     1    1
    31    29    22   ar
    32     6     8    1
    33     6     9    1
