@<TRIPOS>MOLECULE
*****
 22 23 0 0 0
SMALL
GASTEIGER

@<TRIPOS>ATOM
      1 C         139.7406  140.1943  167.7649 C.ar    1  UNL1        0.1296
      2 N         138.5894  139.3550  168.2345 N.ar    1  UNL1       -0.1941
      3 C         137.8005  138.5451  167.2488 C.ar    1  UNL1        0.2850
      4 O         136.6493  137.7058  167.7184 O.2     1  UNL1       -0.2650
      5 C         138.1627  138.5744  165.7935 C.ar    1  UNL1        0.1185
      6 C         139.3138  139.4136  165.3239 C.ar    1  UNL1        0.2124
      7 O         139.6761  139.4429  163.8685 O.3     1  UNL1       -0.4927
      8 N         140.1028  140.2235  166.3096 N.ar    1  UNL1       -0.2636
      9 H         139.1833  138.9370  163.2528 H       1  UNL1        0.2937
     10 C         141.2539  141.0628  165.8399 C.ar    1  UNL1        0.0976
     11 C         142.6285  140.4687  165.7522 C.ar    1  UNL1       -0.0026
     12 C         142.8519  139.0354  166.1342 C.3     1  UNL1        0.0327
     13 C         143.7797  141.3079  165.2826 C.ar    1  UNL1       -0.0026
     14 C         143.5563  142.7412  164.9006 C.ar    1  UNL1        0.0029
     15 C         142.1817  143.3353  164.9883 C.ar    1  UNL1        0.0384
     16 C         141.0305  142.4960  165.4580 C.ar    1  UNL1        0.1545
     17 O         139.6560  143.0901  165.5457 O.3     1  UNL1       -0.4700
     18 C         139.3852  144.4439  164.9591 C.3     1  UNL1        0.2525
     19 C         140.5295  141.0042  168.7506 C.3     1  UNL1        0.0645
     20 C         141.6750  140.3782  169.4894 C.3     1  UNL1        0.0079
     21 C         143.2078  142.3685  168.8265 C.3     1  UNL1        0.0000
     22 C         143.0339  141.0115  169.4418 C.3     1  UNL1        0.0005
@<TRIPOS>BOND
     1    21    22    1
     2    22    20    1
     3    20    19    1
     4    19     1    1
     5     1     2   ar
     6     2     3   ar
     7     3     4    2
     8     3     5   ar
     9     5     6   ar
    10     6     7    1
    11     6     8   ar
    12     8    10    1
    13    10    11   ar
    14    11    12    1
    15    11    13   ar
    16    13    14   ar
    17    14    15   ar
    18    15    16   ar
    19    16    17    1
    20    17    18    1
    21     8     1   ar
    22    16    10   ar
    23     7     9    1
@<TRIPOS>MOLECULE
*****
 22 23 0 0 0
SMALL
GASTEIGER

@<TRIPOS>ATOM
      1 C         142.2477  141.5268  164.1615 C.ar    1  UNL1        0.1296
      2 N         143.5523  141.9623  163.5629 N.ar    1  UNL1       -0.1941
      3 C         144.7776  141.1148  163.7374 C.ar    1  UNL1        0.2850
      4 O         146.0822  141.5504  163.1388 O.2     1  UNL1       -0.2650
      5 C         144.6983  139.8319  164.5105 C.ar    1  UNL1        0.1185
      6 C         143.3937  139.3964  165.1091 C.ar    1  UNL1        0.2124
      7 O         143.3143  138.1134  165.8822 O.3     1  UNL1       -0.4927
      8 N         142.1684  140.2439  164.9346 N.ar    1  UNL1       -0.2636
      9 H         144.0797  137.5840  165.9912 H       1  UNL1        0.2937
     10 C         140.8637  139.8083  165.5332 C.ar    1  UNL1        0.0976
     11 C         140.4995  140.2304  166.9257 C.ar    1  UNL1       -0.0026
     12 C         141.4398  141.0880  167.7196 C.3     1  UNL1        0.0327
     13 C         139.1949  139.7949  167.5243 C.ar    1  UNL1       -0.0026
     14 C         138.2545  138.9373  166.7304 C.ar    1  UNL1        0.0029
     15 C         138.6188  138.5152  165.3379 C.ar    1  UNL1        0.0384
     16 C         139.9234  138.9508  164.7393 C.ar    1  UNL1        0.1545
     17 O         140.2877  138.5287  163.3467 O.3     1  UNL1       -0.4700
     18 C         141.0457  137.2537  163.1236 C.3     1  UNL1        0.2525
     19 C         141.0224  142.3743  163.9870 C.3     1  UNL1        0.0645
     20 C         140.8145  143.5799  164.8549 C.3     1  UNL1        0.0079
     21 C         138.6287  144.8509  165.4523 C.3     1  UNL1        0.0000
     22 C         139.5682  143.7039  165.6803 C.3     1  UNL1        0.0005
@<TRIPOS>BOND
     1    21    22    1
     2    22    20    1
     3    20    19    1
     4    19     1    1
     5     1     2   ar
     6     2     3   ar
     7     3     4    2
     8     3     5   ar
     9     5     6   ar
    10     6     7    1
    11     6     8   ar
    12     8    10    1
    13    10    11   ar
    14    11    12    1
    15    11    13   ar
    16    13    14   ar
    17    14    15   ar
    18    15    16   ar
    19    16    17    1
    20    17    18    1
    21     8     1   ar
    22    16    10   ar
    23     7     9    1
@<TRIPOS>MOLECULE
*****
 22 23 0 0 0
SMALL
GASTEIGER

@<TRIPOS>ATOM
      1 C         140.2568  140.2095  166.0078 C.ar    1  UNL1        0.1296
      2 N         138.9614  139.8286  166.6613 N.ar    1  UNL1       -0.1941
      3 C         138.3355  138.4977  166.3665 C.ar    1  UNL1        0.2850
      4 O         137.0401  138.1169  167.0201 O.2     1  UNL1       -0.2650
      5 C         139.0049  137.5477  165.4183 C.ar    1  UNL1        0.1185
      6 C         140.3002  137.9285  164.7648 C.ar    1  UNL1        0.2124
      7 O         140.9696  136.9784  163.8165 O.3     1  UNL1       -0.4927
      8 N         140.9261  139.2594  165.0596 N.ar    1  UNL1       -0.2636
      9 H         140.5786  136.1470  163.6323 H       1  UNL1        0.2937
     10 C         142.2215  139.6402  164.4060 C.ar    1  UNL1        0.0976
     11 C         143.5233  139.2068  165.0123 C.ar    1  UNL1       -0.0026
     12 C         143.5296  138.3926  166.2721 C.3     1  UNL1        0.0327
     13 C         144.8186  139.5875  164.3588 C.ar    1  UNL1       -0.0026
     14 C         144.8122  140.4018  163.0990 C.ar    1  UNL1        0.0029
     15 C         143.5105  140.8352  162.4927 C.ar    1  UNL1        0.0384
     16 C         142.2151  140.4544  163.1463 C.ar    1  UNL1        0.1545
     17 O         140.9133  140.8878  162.5400 O.3     1  UNL1       -0.4700
     18 C         140.2115  139.9992  161.5561 C.3     1  UNL1        0.2525
     19 C         140.8827  141.5404  166.3026 C.3     1  UNL1        0.0645
     20 C         141.7727  141.7021  167.4991 C.3     1  UNL1        0.0079
     21 C         143.6331  142.7520  166.0203 C.3     1  UNL1        0.0000
     22 C         143.1931  142.1506  167.3222 C.3     1  UNL1        0.0005
@<TRIPOS>BOND
     1    21    22    1
     2    22    20    1
     3    20    19    1
     4    19     1    1
     5     1     2   ar
     6     2     3   ar
     7     3     4    2
     8     3     5   ar
     9     5     6   ar
    10     6     7    1
    11     6     8   ar
    12     8    10    1
    13    10    11   ar
    14    11    12    1
    15    11    13   ar
    16    13    14   ar
    17    14    15   ar
    18    15    16   ar
    19    16    17    1
    20    17    18    1
    21     8     1   ar
    22    16    10   ar
    23     7     9    1
@<TRIPOS>MOLECULE
*****
 22 23 0 0 0
SMALL
GASTEIGER

@<TRIPOS>ATOM
      1 C         140.3305  139.7113  166.4843 C.ar    1  UNL1        0.1296
      2 N         139.2592  139.6104  167.5293 N.ar    1  UNL1       -0.1941
      3 C         139.5033  140.1486  168.9080 C.ar    1  UNL1        0.2850
      4 O         138.4319  140.0477  169.9531 O.2     1  UNL1       -0.2650
      5 C         140.8186  140.7876  169.2417 C.ar    1  UNL1        0.1185
      6 C         141.8899  140.8885  168.1967 C.ar    1  UNL1        0.2124
      7 O         143.2054  141.5276  168.5303 O.3     1  UNL1       -0.4927
      8 N         141.6458  140.3503  166.8180 N.ar    1  UNL1       -0.2636
      9 H         143.3579  141.8638  169.3915 H       1  UNL1        0.2937
     10 C         142.7172  140.4512  165.7729 C.ar    1  UNL1        0.0976
     11 C         143.7115  139.3402  165.6085 C.ar    1  UNL1       -0.0026
     12 C         143.6345  138.1284  166.4892 C.3     1  UNL1        0.0327
     13 C         144.7829  139.4411  164.5636 C.ar    1  UNL1       -0.0026
     14 C         144.8599  140.6530  163.6829 C.ar    1  UNL1        0.0029
     15 C         143.8656  141.7639  163.8473 C.ar    1  UNL1        0.0384
     16 C         142.7942  141.6630  164.8923 C.ar    1  UNL1        0.1545
     17 O         141.7998  142.7740  165.0567 O.3     1  UNL1       -0.4700
     18 C         140.5555  142.7968  164.2193 C.3     1  UNL1        0.2525
     19 C         140.0864  139.1731  165.1056 C.3     1  UNL1        0.0645
     20 C         140.0801  137.6919  164.8689 C.3     1  UNL1        0.0079
     21 C         141.7403  137.8603  162.8776 C.3     1  UNL1        0.0000
     22 C         141.1258  137.0678  163.9932 C.3     1  UNL1        0.0005
@<TRIPOS>BOND
     1    21    22    1
     2    22    20    1
     3    20    19    1
     4    19     1    1
     5     1     2   ar
     6     2     3   ar
     7     3     4    2
     8     3     5   ar
     9     5     6   ar
    10     6     7    1
    11     6     8   ar
    12     8    10    1
    13    10    11   ar
    14    11    12    1
    15    11    13   ar
    16    13    14   ar
    17    14    15   ar
    18    15    16   ar
    19    16    17    1
    20    17    18    1
    21     8     1   ar
    22    16    10   ar
    23     7     9    1
@<TRIPOS>MOLECULE
*****
 22 23 0 0 0
SMALL
GASTEIGER

@<TRIPOS>ATOM
      1 C         140.2433  142.1817  166.8292 C.ar    1  UNL1        0.1296
      2 N         140.1522  143.3543  167.7601 N.ar    1  UNL1       -0.1941
      3 C         140.3364  143.1567  169.2356 C.ar    1  UNL1        0.2850
      4 O         140.2452  144.3295  170.1665 O.2     1  UNL1       -0.2650
      5 C         140.6117  141.7865  169.7802 C.ar    1  UNL1        0.1185
      6 C         140.7028  140.6139  168.8493 C.ar    1  UNL1        0.2124
      7 O         140.9782  139.2436  169.3938 O.3     1  UNL1       -0.4927
      8 N         140.5186  140.8115  167.3738 N.ar    1  UNL1       -0.2636
      9 H         141.0933  139.1201  170.3155 H       1  UNL1        0.2937
     10 C         140.6098  139.6388  166.4429 C.ar    1  UNL1        0.0976
     11 C         139.3813  138.8417  166.1182 C.ar    1  UNL1       -0.0026
     12 C         138.0616  139.2173  166.7245 C.3     1  UNL1        0.0327
     13 C         139.4724  137.6690  165.1874 C.ar    1  UNL1       -0.0026
     14 C         140.7920  137.2934  164.5811 C.ar    1  UNL1        0.0029
     15 C         142.0205  138.0905  164.9058 C.ar    1  UNL1        0.0384
     16 C         141.9294  139.2632  165.8367 C.ar    1  UNL1        0.1545
     17 O         143.1579  140.0603  166.1614 O.3     1  UNL1       -0.4700
     18 C         143.6426  141.1127  165.2086 C.3     1  UNL1        0.2525
     19 C         140.0591  142.3793  165.3537 C.3     1  UNL1        0.0645
     20 C         138.6812  142.3630  164.7611 C.3     1  UNL1        0.0079
     21 C         138.2808  144.8736  165.2968 C.3     1  UNL1        0.0000
     22 C         137.9698  143.6536  164.4813 C.3     1  UNL1        0.0005
@<TRIPOS>BOND
     1    21    22    1
     2    22    20    1
     3    20    19    1
     4    19     1    1
     5     1     2   ar
     6     2     3   ar
     7     3     4    2
     8     3     5   ar
     9     5     6   ar
    10     6     7    1
    11     6     8   ar
    12     8    10    1
    13    10    11   ar
    14    11    12    1
    15    11    13   ar
    16    13    14   ar
    17    14    15   ar
    18    15    16   ar
    19    16    17    1
    20    17    18    1
    21     8     1   ar
    22    16    10   ar
    23     7     9    1
@<TRIPOS>MOLECULE
*****
 22 23 0 0 0
SMALL
GASTEIGER

@<TRIPOS>ATOM
      1 C         139.3529  139.7828  167.1438 C.ar    1  UNL1        0.1296
      2 N         138.9294  139.5738  168.5675 N.ar    1  UNL1       -0.1941
      3 C         139.8199  140.0217  169.6884 C.ar    1  UNL1        0.2850
      4 O         139.3963  139.8128  171.1121 O.2     1  UNL1       -0.2650
      5 C         141.1340  140.6785  169.3855 C.ar    1  UNL1        0.1185
      6 C         141.5575  140.8874  167.9618 C.ar    1  UNL1        0.2124
      7 O         142.8717  141.5443  167.6589 O.3     1  UNL1       -0.4927
      8 N         140.6670  140.4396  166.8410 N.ar    1  UNL1       -0.2636
      9 H         143.4280  141.8241  168.3591 H       1  UNL1        0.2937
     10 C         141.0905  140.6485  165.4172 C.ar    1  UNL1        0.0976
     11 C         140.6836  141.8951  164.6889 C.ar    1  UNL1       -0.0026
     12 C         139.8531  142.9328  165.3844 C.3     1  UNL1        0.0327
     13 C         141.1071  142.1041  163.2653 C.ar    1  UNL1       -0.0026
     14 C         141.9377  141.0665  162.5698 C.ar    1  UNL1        0.0029
     15 C         142.3446  139.8199  163.2981 C.ar    1  UNL1        0.0384
     16 C         141.9210  139.6109  164.7218 C.ar    1  UNL1        0.1545
     17 O         142.3280  138.3643  165.4501 O.3     1  UNL1       -0.4700
     18 C         143.6381  138.3155  166.1792 C.3     1  UNL1        0.2525
     19 C         138.4623  139.3349  166.0230 C.3     1  UNL1        0.0645
     20 C         138.6244  137.9629  165.4387 C.3     1  UNL1        0.0079
     21 C         138.6298  138.9198  163.0232 C.3     1  UNL1        0.0000
     22 C         138.9230  137.8004  163.9777 C.3     1  UNL1        0.0005
@<TRIPOS>BOND
     1    21    22    1
     2    22    20    1
     3    20    19    1
     4    19     1    1
     5     1     2   ar
     6     2     3   ar
     7     3     4    2
     8     3     5   ar
     9     5     6   ar
    10     6     7    1
    11     6     8   ar
    12     8    10    1
    13    10    11   ar
    14    11    12    1
    15    11    13   ar
    16    13    14   ar
    17    14    15   ar
    18    15    16   ar
    19    16    17    1
    20    17    18    1
    21     8     1   ar
    22    16    10   ar
    23     7     9    1
@<TRIPOS>MOLECULE
*****
 22 23 0 0 0
SMALL
GASTEIGER

@<TRIPOS>ATOM
      1 C         142.0830  141.0213  163.7954 C.ar    1  UNL1        0.1296
      2 N         143.3785  141.5444  163.2497 N.ar    1  UNL1       -0.1941
      3 C         144.6731  140.8933  163.6373 C.ar    1  UNL1        0.2850
      4 O         145.9687  141.4165  163.0915 O.2     1  UNL1       -0.2650
      5 C         144.6721  139.7191  164.5706 C.ar    1  UNL1        0.1185
      6 C         143.3765  139.1960  165.1164 C.ar    1  UNL1        0.2124
      7 O         143.3755  138.0218  166.0498 O.3     1  UNL1       -0.4927
      8 N         142.0820  139.8471  164.7288 N.ar    1  UNL1       -0.2636
      9 H         144.1841  137.6150  166.2919 H       1  UNL1        0.2937
     10 C         140.7864  139.3240  165.2746 C.ar    1  UNL1        0.0976
     11 C         140.0962  138.1769  164.5979 C.ar    1  UNL1       -0.0026
     12 C         140.7016  137.5530  163.3755 C.3     1  UNL1        0.0327
     13 C         138.8007  137.6537  165.1437 C.ar    1  UNL1       -0.0026
     14 C         138.1953  138.2776  166.3662 C.ar    1  UNL1        0.0029
     15 C         138.8855  139.4247  167.0428 C.ar    1  UNL1        0.0384
     16 C         140.1811  139.9478  166.4970 C.ar    1  UNL1        0.1545
     17 O         140.8713  141.0949  167.1737 O.3     1  UNL1       -0.4700
     18 C         140.4208  141.5457  168.5316 C.3     1  UNL1        0.2525
     19 C         140.7885  141.6724  163.4078 C.3     1  UNL1        0.0645
     20 C         140.3644  142.9505  164.0686 C.3     1  UNL1        0.0079
     21 C         137.9236  142.1727  164.5014 C.3     1  UNL1        0.0000
     22 C         139.1184  142.9860  164.9028 C.3     1  UNL1        0.0005
@<TRIPOS>BOND
     1    21    22    1
     2    22    20    1
     3    20    19    1
     4    19     1    1
     5     1     2   ar
     6     2     3   ar
     7     3     4    2
     8     3     5   ar
     9     5     6   ar
    10     6     7    1
    11     6     8   ar
    12     8    10    1
    13    10    11   ar
    14    11    12    1
    15    11    13   ar
    16    13    14   ar
    17    14    15   ar
    18    15    16   ar
    19    16    17    1
    20    17    18    1
    21     8     1   ar
    22    16    10   ar
    23     7     9    1
@<TRIPOS>MOLECULE
*****
 22 23 0 0 0
SMALL
GASTEIGER

@<TRIPOS>ATOM
      1 C         142.2054  138.3189  163.5986 C.ar    1  UNL1        0.1296
      2 N         142.6748  138.0596  162.1977 N.ar    1  UNL1       -0.1941
      3 C         143.7326  138.9308  161.5878 C.ar    1  UNL1        0.2850
      4 O         144.2020  138.6715  160.1869 O.2     1  UNL1       -0.2650
      5 C         144.3210  140.0613  162.3787 C.ar    1  UNL1        0.1185
      6 C         143.8517  140.3206  163.7796 C.ar    1  UNL1        0.2124
      7 O         144.4401  141.4512  164.5706 O.3     1  UNL1       -0.4927
      8 N         142.7939  139.4494  164.3895 N.ar    1  UNL1       -0.2636
      9 H         145.1009  141.9954  164.1896 H       1  UNL1        0.2937
     10 C         142.3245  139.7087  165.7904 C.ar    1  UNL1        0.0976
     11 C         142.9448  138.9687  166.9383 C.ar    1  UNL1       -0.0026
     12 C         144.0345  137.9693  166.6852 C.3     1  UNL1        0.0327
     13 C         142.4755  139.2280  168.3391 C.ar    1  UNL1       -0.0026
     14 C         141.3858  140.2274  168.5922 C.ar    1  UNL1        0.0029
     15 C         140.7656  140.9674  167.4444 C.ar    1  UNL1        0.0384
     16 C         141.2349  140.7081  166.0434 C.ar    1  UNL1        0.1545
     17 O         140.6146  141.4481  164.8956 O.3     1  UNL1       -0.4700
     18 C         139.4307  142.3390  165.1297 C.3     1  UNL1        0.2525
     19 C         141.1476  137.4476  164.2085 C.3     1  UNL1        0.0645
     20 C         139.7221  137.5723  163.7587 C.3     1  UNL1        0.0079
     21 C         138.4345  138.2506  165.9109 C.3     1  UNL1        0.0000
     22 C         138.7882  138.5021  164.4750 C.3     1  UNL1        0.0005
@<TRIPOS>BOND
     1    21    22    1
     2    22    20    1
     3    20    19    1
     4    19     1    1
     5     1     2   ar
     6     2     3   ar
     7     3     4    2
     8     3     5   ar
     9     5     6   ar
    10     6     7    1
    11     6     8   ar
    12     8    10    1
    13    10    11   ar
    14    11    12    1
    15    11    13   ar
    16    13    14   ar
    17    14    15   ar
    18    15    16   ar
    19    16    17    1
    20    17    18    1
    21     8     1   ar
    22    16    10   ar
    23     7     9    1
@<TRIPOS>MOLECULE
*****
 22 23 0 0 0
SMALL
GASTEIGER

@<TRIPOS>ATOM
      1 C         142.9816  141.8186  166.9567 C.ar    1  UNL1        0.1296
      2 N         143.5620  142.7053  168.0183 N.ar    1  UNL1       -0.1941
      3 C         143.1730  142.5101  169.4537 C.ar    1  UNL1        0.2850
      4 O         143.7534  143.3969  170.5153 O.2     1  UNL1       -0.2650
      5 C         142.2037  141.4282  169.8276 C.ar    1  UNL1        0.1185
      6 C         141.6234  140.5415  168.7661 C.ar    1  UNL1        0.2124
      7 O         140.6540  139.4595  169.1400 O.3     1  UNL1       -0.4927
      8 N         142.0123  140.7367  167.3306 N.ar    1  UNL1       -0.2636
      9 H         140.4110  139.3375  170.0367 H       1  UNL1        0.2937
     10 C         141.4319  139.8500  166.2690 C.ar    1  UNL1        0.0976
     11 C         142.1804  138.6306  165.8187 C.ar    1  UNL1       -0.0026
     12 C         143.5093  138.2979  166.4299 C.3     1  UNL1        0.0327
     13 C         141.6001  137.7438  164.7572 C.ar    1  UNL1       -0.0026
     14 C         140.2712  138.0765  164.1459 C.ar    1  UNL1        0.0029
     15 C         139.5227  139.2959  164.5963 C.ar    1  UNL1        0.0384
     16 C         140.1031  140.1826  165.6579 C.ar    1  UNL1        0.1545
     17 O         139.3546  141.4020  166.1082 O.3     1  UNL1       -0.4700
     18 C         139.5889  142.7191  165.4296 C.3     1  UNL1        0.2525
     19 C         143.3706  142.0139  165.5212 C.3     1  UNL1        0.0645
     20 C         144.4275  143.0151  165.1601 C.3     1  UNL1        0.0079
     21 C         143.7619  144.7149  163.3114 C.3     1  UNL1        0.0000
     22 C         144.0363  144.4048  164.7531 C.3     1  UNL1        0.0005
@<TRIPOS>BOND
     1    21    22    1
     2    22    20    1
     3    20    19    1
     4    19     1    1
     5     1     2   ar
     6     2     3   ar
     7     3     4    2
     8     3     5   ar
     9     5     6   ar
    10     6     7    1
    11     6     8   ar
    12     8    10    1
    13    10    11   ar
    14    11    12    1
    15    11    13   ar
    16    13    14   ar
    17    14    15   ar
    18    15    16   ar
    19    16    17    1
    20    17    18    1
    21     8     1   ar
    22    16    10   ar
    23     7     9    1
