@<TRIPOS>MOLECULE
*****
 24 25 0 0 0
SMALL
GASTEIGER

@<TRIPOS>ATOM
      1 C         139.0391  139.8742  165.2641 C.ar    1  UNL1        0.1328
      2 N         138.1103  138.7583  165.6409 N.ar    1  UNL1       -0.1993
      3 C         137.8485  138.4562  167.0867 C.ar    1  UNL1        0.2149
      4 N         136.9196  137.3402  167.4635 N.pl3   1  UNL1       -0.3274
      5 N         138.5155  139.2701  168.1557 N.ar    1  UNL1       -0.2116
      6 C         139.4444  140.3860  167.7789 C.ar    1  UNL1        0.1142
      7 C         140.1113  141.1999  168.8478 C.ar    1  UNL1        0.1578
      8 F         139.8495  140.8978  170.2936 F       1  UNL1       -0.2026
      9 C         141.0402  142.3158  168.4710 C.ar    1  UNL1        0.0312
     10 C         141.3020  142.6178  167.0253 C.ar    1  UNL1        0.0025
     11 C         140.6350  141.8040  165.9563 C.ar    1  UNL1        0.0044
     12 C         139.7062  140.6881  166.3331 C.ar    1  UNL1        0.0514
     13 H         136.4818  136.8061  166.7619 H       1  UNL1        0.1452
     14 H         136.7478  137.1420  168.4124 H       1  UNL1        0.1452
     15 N         139.3009  140.1762  163.8184 N.pl3   1  UNL1       -0.3195
     16 H         140.2221  140.1608  163.4713 H       1  UNL1        0.1481
     17 C         138.1593  140.5016  162.9015 C.3     1  UNL1        0.0729
     18 C         137.2442  141.6466  163.2203 C.3     1  UNL1        0.0196
     19 C         137.8723  143.7923  164.5437 C.3     1  UNL1        0.0001
     20 C         137.7773  143.0485  163.2446 C.3     1  UNL1        0.0017
     21 C         137.9328  139.6821  161.6657 C.3     1  UNL1        0.0512
     22 C         137.7807  138.1935  161.7703 C.3     1  UNL1        0.1389
     23 O         138.5806  137.4272  162.7817 O.3     1  UNL1       -0.3819
     24 H         139.5224  137.4786  162.5553 H       1  UNL1        0.2104
@<TRIPOS>BOND
     1    19    20    1
     2    20    18    1
     3    17    18    1
     4    17    21    1
     5    21    22    1
     6    22    23    1
     7    17    15    1
     8    15     1    1
     9     1     2   ar
    10     2     3   ar
    11     3     4    1
    12     3     5   ar
    13     5     6   ar
    14     6     7   ar
    15     7     8    1
    16     7     9   ar
    17     9    10   ar
    18    10    11   ar
    19    11    12   ar
    20    12     1   ar
    21    12     6   ar
    22    23    24    1
    23    15    16    1
    24     4    13    1
    25     4    14    1
@<TRIPOS>MOLECULE
*****
 24 25 0 0 0
SMALL
GASTEIGER

@<TRIPOS>ATOM
      1 C         139.7841  143.2403  164.3527 C.ar    1  UNL1        0.1328
      2 N         139.0667  144.1230  163.3748 N.ar    1  UNL1       -0.1993
      3 C         139.8247  145.1692  162.6127 C.ar    1  UNL1        0.2149
      4 N         139.1073  146.0520  161.6348 N.pl3   1  UNL1       -0.3274
      5 N         141.3000  145.3328  162.8285 N.ar    1  UNL1       -0.2116
      6 C         142.0175  144.4501  163.8064 C.ar    1  UNL1        0.1142
      7 C         143.4928  144.6137  164.0221 C.ar    1  UNL1        0.1578
      8 F         144.2508  145.6600  163.2600 F       1  UNL1       -0.2026
      9 C         144.2101  143.7310  165.0000 C.ar    1  UNL1        0.0312
     10 C         143.4522  142.6847  165.7620 C.ar    1  UNL1        0.0025
     11 C         141.9768  142.5211  165.5463 C.ar    1  UNL1        0.0044
     12 C         141.2595  143.4038  164.5685 C.ar    1  UNL1        0.0514
     13 H         138.1389  145.9446  161.4932 H       1  UNL1        0.1452
     14 H         139.6047  146.7387  161.1346 H       1  UNL1        0.1452
     15 N         139.0261  142.1940  165.1147 N.pl3   1  UNL1       -0.3195
     16 H         138.4599  142.4538  165.8771 H       1  UNL1        0.1481
     17 C         139.1307  140.7520  164.7153 C.3     1  UNL1        0.0729
     18 C         139.3603  139.6994  165.7590 C.3     1  UNL1        0.0196
     19 C         137.5461  138.4473  167.1341 C.3     1  UNL1        0.0001
     20 C         138.3935  138.5613  165.9017 C.3     1  UNL1        0.0017
     21 C         139.0057  140.3626  163.2721 C.3     1  UNL1        0.0512
     22 C         137.7217  140.6094  162.5371 C.3     1  UNL1        0.1389
     23 O         136.6186  141.3849  163.1942 O.3     1  UNL1       -0.3819
     24 H         136.2783  140.8841  163.9520 H       1  UNL1        0.2104
@<TRIPOS>BOND
     1    19    20    1
     2    20    18    1
     3    17    18    1
     4    17    21    1
     5    21    22    1
     6    22    23    1
     7    17    15    1
     8    15     1    1
     9     1     2   ar
    10     2     3   ar
    11     3     4    1
    12     3     5   ar
    13     5     6   ar
    14     6     7   ar
    15     7     8    1
    16     7     9   ar
    17     9    10   ar
    18    10    11   ar
    19    11    12   ar
    20    12     1   ar
    21    12     6   ar
    22    23    24    1
    23    15    16    1
    24     4    13    1
    25     4    14    1
@<TRIPOS>MOLECULE
*****
 24 25 0 0 0
SMALL
GASTEIGER

@<TRIPOS>ATOM
      1 C         140.1729  140.1970  167.7141 C.ar    1  UNL1        0.1328
      2 N         138.9528  139.7121  168.4395 N.ar    1  UNL1       -0.1993
      3 C         138.7685  140.0311  169.8936 C.ar    1  UNL1        0.2149
      4 N         137.5483  139.5462  170.6190 N.pl3   1  UNL1       -0.3274
      5 N         139.8042  140.8350  170.6222 N.ar    1  UNL1       -0.2116
      6 C         141.0244  141.3199  169.8968 C.ar    1  UNL1        0.1142
      7 C         142.0601  142.1238  170.6254 C.ar    1  UNL1        0.1578
      8 F         141.8758  142.4428  172.0795 F       1  UNL1       -0.2026
      9 C         143.2802  142.6087  169.9000 C.ar    1  UNL1        0.0312
     10 C         143.4645  142.2897  168.4460 C.ar    1  UNL1        0.0025
     11 C         142.4288  141.4858  167.7173 C.ar    1  UNL1        0.0044
     12 C         141.2087  141.0009  168.4427 C.ar    1  UNL1        0.0514
     13 H         136.8685  139.0186  170.1408 H       1  UNL1        0.1452
     14 H         137.4273  139.7556  171.5734 H       1  UNL1        0.1452
     15 N         140.3572  139.8780  166.2601 N.pl3   1  UNL1       -0.3195
     16 H         141.2637  139.7839  165.8878 H       1  UNL1        0.1481
     17 C         139.1603  139.7023  165.3732 C.3     1  UNL1        0.0729
     18 C         138.7996  138.3392  164.8615 C.3     1  UNL1        0.0196
     19 C         140.9140  137.2966  163.7695 C.3     1  UNL1        0.0001
     20 C         139.8375  137.2573  164.8134 C.3     1  UNL1        0.0017
     21 C         138.3241  140.8898  164.9979 C.3     1  UNL1        0.0512
     22 C         138.0078  141.1590  163.5566 C.3     1  UNL1        0.1389
     23 O         136.5821  141.3190  163.1189 O.3     1  UNL1       -0.3819
     24 H         136.1122  140.4782  163.2340 H       1  UNL1        0.2104
@<TRIPOS>BOND
     1    19    20    1
     2    20    18    1
     3    17    18    1
     4    17    21    1
     5    21    22    1
     6    22    23    1
     7    17    15    1
     8    15     1    1
     9     1     2   ar
    10     2     3   ar
    11     3     4    1
    12     3     5   ar
    13     5     6   ar
    14     6     7   ar
    15     7     8    1
    16     7     9   ar
    17     9    10   ar
    18    10    11   ar
    19    11    12   ar
    20    12     1   ar
    21    12     6   ar
    22    23    24    1
    23    15    16    1
    24     4    13    1
    25     4    14    1
@<TRIPOS>MOLECULE
*****
 24 25 0 0 0
SMALL
GASTEIGER

@<TRIPOS>ATOM
      1 C         139.0015  140.1111  164.5201 C.ar    1  UNL1        0.1328
      2 N         138.3291  139.4605  163.3477 N.ar    1  UNL1       -0.1993
      3 C         137.6262  140.3021  162.3242 C.ar    1  UNL1        0.2149
      4 N         136.9538  139.6514  161.1518 N.pl3   1  UNL1       -0.3274
      5 N         137.5958  141.7944  162.4730 N.ar    1  UNL1       -0.2116
      6 C         138.2683  142.4451  163.6455 C.ar    1  UNL1        0.1142
      7 C         138.2378  143.9373  163.7943 C.ar    1  UNL1        0.1578
      8 F         137.5350  144.7790  162.7708 F       1  UNL1       -0.2026
      9 C         138.9102  144.5879  164.9667 C.ar    1  UNL1        0.0312
     10 C         139.6131  143.7463  165.9902 C.ar    1  UNL1        0.0025
     11 C         139.6435  142.2540  165.8414 C.ar    1  UNL1        0.0044
     12 C         138.9711  141.6034  164.6690 C.ar    1  UNL1        0.0514
     13 H         136.9738  138.6720  161.0541 H       1  UNL1        0.1452
     14 H         136.4925  140.2038  160.4800 H       1  UNL1        0.1452
     15 N         139.7044  139.2694  165.5436 N.pl3   1  UNL1       -0.3195
     16 H         139.2984  139.1308  166.4298 H       1  UNL1        0.1481
     17 C         141.0257  138.6391  165.2171 C.3     1  UNL1        0.0729
     18 C         142.3012  139.3325  165.5944 C.3     1  UNL1        0.0196
     19 C         142.6724  139.4793  168.1617 C.3     1  UNL1        0.0001
     20 C         143.0481  138.9112  166.8252 C.3     1  UNL1        0.0017
     21 C         141.0717  137.3153  164.5131 C.3     1  UNL1        0.0512
     22 C         141.0947  137.2633  163.0142 C.3     1  UNL1        0.1389
     23 O         139.8088  137.2987  162.2427 O.3     1  UNL1       -0.3819
     24 H         139.3000  136.4933  162.4253 H       1  UNL1        0.2104
@<TRIPOS>BOND
     1    19    20    1
     2    20    18    1
     3    17    18    1
     4    17    21    1
     5    21    22    1
     6    22    23    1
     7    17    15    1
     8    15     1    1
     9     1     2   ar
    10     2     3   ar
    11     3     4    1
    12     3     5   ar
    13     5     6   ar
    14     6     7   ar
    15     7     8    1
    16     7     9   ar
    17     9    10   ar
    18    10    11   ar
    19    11    12   ar
    20    12     1   ar
    21    12     6   ar
    22    23    24    1
    23    15    16    1
    24     4    13    1
    25     4    14    1
@<TRIPOS>MOLECULE
*****
 24 25 0 0 0
SMALL
GASTEIGER

@<TRIPOS>ATOM
      1 C         141.7452  142.9849  165.0075 C.ar    1  UNL1        0.1328
      2 N         142.9806  143.6543  164.4824 N.ar    1  UNL1       -0.1993
      3 C         142.8657  144.7404  163.4542 C.ar    1  UNL1        0.2149
      4 N         144.1011  145.4098  162.9291 N.pl3   1  UNL1       -0.3274
      5 N         141.5154  145.1572  162.9513 N.ar    1  UNL1       -0.2116
      6 C         140.2800  144.4879  163.4764 C.ar    1  UNL1        0.1142
      7 C         138.9297  144.9047  162.9734 C.ar    1  UNL1        0.1578
      8 F         138.8148  145.9909  161.9453 F       1  UNL1       -0.2026
      9 C         137.6944  144.2354  163.4986 C.ar    1  UNL1        0.0312
     10 C         137.8093  143.1492  164.5267 C.ar    1  UNL1        0.0025
     11 C         139.1595  142.7324  165.0297 C.ar    1  UNL1        0.0044
     12 C         140.3949  143.4017  164.5046 C.ar    1  UNL1        0.0514
     13 H         144.9874  145.1362  163.2592 H       1  UNL1        0.1452
     14 H         144.0257  146.1226  162.2543 H       1  UNL1        0.1452
     15 N         141.8601  141.8988  166.0357 N.pl3   1  UNL1       -0.3195
     16 H         141.8412  140.9544  165.7582 H       1  UNL1        0.1481
     17 C         142.0039  142.2515  167.4865 C.3     1  UNL1        0.0729
     18 C         140.7828  142.4668  168.3306 C.3     1  UNL1        0.0196
     19 C         140.6074  139.9872  169.0862 C.3     1  UNL1        0.0001
     20 C         139.9497  141.2946  168.7572 C.3     1  UNL1        0.0017
     21 C         143.3688  142.3890  168.0932 C.3     1  UNL1        0.0512
     22 C         143.5385  142.3176  169.5819 C.3     1  UNL1        0.1389
     23 O         144.7980  142.8260  170.2183 O.3     1  UNL1       -0.3819
     24 H         145.5456  142.2726  169.9430 H       1  UNL1        0.2104
@<TRIPOS>BOND
     1    19    20    1
     2    20    18    1
     3    17    18    1
     4    17    21    1
     5    21    22    1
     6    22    23    1
     7    17    15    1
     8    15     1    1
     9     1     2   ar
    10     2     3   ar
    11     3     4    1
    12     3     5   ar
    13     5     6   ar
    14     6     7   ar
    15     7     8    1
    16     7     9   ar
    17     9    10   ar
    18    10    11   ar
    19    11    12   ar
    20    12     1   ar
    21    12     6   ar
    22    23    24    1
    23    15    16    1
    24     4    13    1
    25     4    14    1
@<TRIPOS>MOLECULE
*****
 24 25 0 0 0
SMALL
GASTEIGER

@<TRIPOS>ATOM
      1 C         141.5238  144.2497  163.9788 C.ar    1  UNL1        0.1328
      2 N         142.6874  144.3650  163.0394 N.ar    1  UNL1       -0.1993
      3 C         143.7553  143.3117  163.0352 C.ar    1  UNL1        0.2149
      4 N         144.9189  143.4271  162.0957 N.pl3   1  UNL1       -0.3274
      5 N         143.6596  142.1429  163.9706 N.ar    1  UNL1       -0.2116
      6 C         142.4959  142.0275  164.9101 C.ar    1  UNL1        0.1142
      7 C         142.4002  140.8588  165.8455 C.ar    1  UNL1        0.1578
      8 F         143.4681  139.8055  165.8413 F       1  UNL1       -0.2026
      9 C         141.2366  140.7435  166.7849 C.ar    1  UNL1        0.0312
     10 C         140.1687  141.7968  166.7891 C.ar    1  UNL1        0.0025
     11 C         140.2644  142.9655  165.8537 C.ar    1  UNL1        0.0044
     12 C         141.4280  143.0809  164.9142 C.ar    1  UNL1        0.0514
     13 H         144.9817  144.1941  161.4818 H       1  UNL1        0.1452
     14 H         145.6198  142.7357  162.0929 H       1  UNL1        0.1452
     15 N         140.4559  145.3030  163.9830 N.pl3   1  UNL1       -0.3195
     16 H         140.4402  145.9853  164.6925 H       1  UNL1        0.1481
     17 C         139.4119  145.3168  162.9060 C.3     1  UNL1        0.0729
     18 C         138.1388  144.5442  163.0856 C.3     1  UNL1        0.0196
     19 C         137.5039  142.0442  163.3972 C.3     1  UNL1        0.0001
     20 C         138.0199  143.1553  162.5316 C.3     1  UNL1        0.0017
     21 C         139.6410  146.1034  161.6494 C.3     1  UNL1        0.0512
     22 C         140.3236  145.4626  160.4775 C.3     1  UNL1        0.1389
     23 O         141.8213  145.4001  160.4242 O.3     1  UNL1       -0.3819
     24 H         142.1800  146.2983  160.3498 H       1  UNL1        0.2104
@<TRIPOS>BOND
     1    19    20    1
     2    20    18    1
     3    17    18    1
     4    17    21    1
     5    21    22    1
     6    22    23    1
     7    17    15    1
     8    15     1    1
     9     1     2   ar
    10     2     3   ar
    11     3     4    1
    12     3     5   ar
    13     5     6   ar
    14     6     7   ar
    15     7     8    1
    16     7     9   ar
    17     9    10   ar
    18    10    11   ar
    19    11    12   ar
    20    12     1   ar
    21    12     6   ar
    22    23    24    1
    23    15    16    1
    24     4    13    1
    25     4    14    1
@<TRIPOS>MOLECULE
*****
 24 25 0 0 0
SMALL
GASTEIGER

@<TRIPOS>ATOM
      1 C         140.5866  141.0708  166.4337 C.ar    1  UNL1        0.1328
      2 N         140.4562  139.5917  166.2217 N.ar    1  UNL1       -0.1993
      3 C         139.4096  139.0570  165.2895 C.ar    1  UNL1        0.2149
      4 N         139.2792  137.5777  165.0774 N.pl3   1  UNL1       -0.3274
      5 N         138.4935  140.0015  164.5694 N.ar    1  UNL1       -0.2116
      6 C         138.6238  141.4808  164.7815 C.ar    1  UNL1        0.1142
      7 C         137.7077  142.4253  164.0615 C.ar    1  UNL1        0.1578
      8 F         136.6612  141.8906  163.1293 F       1  UNL1       -0.2026
      9 C         137.8381  143.9044  164.2735 C.ar    1  UNL1        0.0312
     10 C         138.8847  144.4391  165.2057 C.ar    1  UNL1        0.0025
     11 C         139.8008  143.4946  165.9257 C.ar    1  UNL1        0.0044
     12 C         139.6704  142.0154  165.7137 C.ar    1  UNL1        0.0514
     13 H         139.8806  136.9578  165.5501 H       1  UNL1        0.1452
     14 H         138.5924  137.2268  164.4657 H       1  UNL1        0.1452
     15 N         141.6331  141.6055  167.3659 N.pl3   1  UNL1       -0.3195
     16 H         142.3269  142.2170  167.0283 H       1  UNL1        0.1481
     17 C         141.6227  141.2083  168.8123 C.3     1  UNL1        0.0729
     18 C         140.3396  141.2370  169.5887 C.3     1  UNL1        0.0196
     19 C         140.5512  143.8139  169.8437 C.3     1  UNL1        0.0001
     20 C         139.7965  142.5416  170.0921 C.3     1  UNL1        0.0017
     21 C         142.8954  140.7825  169.4824 C.3     1  UNL1        0.0512
     22 C         142.8442  139.9797  170.7484 C.3     1  UNL1        0.1389
     23 O         142.4412  140.6350  172.0361 O.3     1  UNL1       -0.3819
     24 H         143.1091  141.2920  172.2874 H       1  UNL1        0.2104
@<TRIPOS>BOND
     1    19    20    1
     2    20    18    1
     3    17    18    1
     4    17    21    1
     5    21    22    1
     6    22    23    1
     7    17    15    1
     8    15     1    1
     9     1     2   ar
    10     2     3   ar
    11     3     4    1
    12     3     5   ar
    13     5     6   ar
    14     6     7   ar
    15     7     8    1
    16     7     9   ar
    17     9    10   ar
    18    10    11   ar
    19    11    12   ar
    20    12     1   ar
    21    12     6   ar
    22    23    24    1
    23    15    16    1
    24     4    13    1
    25     4    14    1
@<TRIPOS>MOLECULE
*****
 24 25 0 0 0
SMALL
GASTEIGER

@<TRIPOS>ATOM
      1 C         141.6607  141.1983  166.1625 C.ar    1  UNL1        0.1328
      2 N         143.0717  141.2368  165.6550 N.ar    1  UNL1       -0.1993
      3 C         143.6082  140.0951  164.8435 C.ar    1  UNL1        0.2149
      4 N         145.0193  140.1336  164.3360 N.pl3   1  UNL1       -0.3274
      5 N         142.7338  138.9149  164.5393 N.ar    1  UNL1       -0.2116
      6 C         141.3227  138.8764  165.0468 C.ar    1  UNL1        0.1142
      7 C         140.4482  137.6963  164.7427 C.ar    1  UNL1        0.1578
      8 F         140.9848  136.5546  163.9311 F       1  UNL1       -0.2026
      9 C         139.0373  137.6578  165.2502 C.ar    1  UNL1        0.0312
     10 C         138.5007  138.7995  166.0617 C.ar    1  UNL1        0.0025
     11 C         139.3752  139.9797  166.3659 C.ar    1  UNL1        0.0044
     12 C         140.7862  140.0181  165.8584 C.ar    1  UNL1        0.0514
     13 H         145.5932  140.9082  164.5356 H       1  UNL1        0.1452
     14 H         145.3715  139.3842  163.8033 H       1  UNL1        0.1452
     15 N         141.1241  142.3400  166.9741 N.pl3   1  UNL1       -0.3195
     16 H         140.5268  143.0023  166.5572 H       1  UNL1        0.1481
     17 C         141.4977  142.4726  168.4207 C.3     1  UNL1        0.0729
     18 C         140.5546  143.1346  169.3812 C.3     1  UNL1        0.0196
     19 C         139.2898  140.9264  169.9049 C.3     1  UNL1        0.0001
     20 C         139.7276  142.3012  170.3149 C.3     1  UNL1        0.0017
     21 C         142.8142  141.9431  168.9070 C.3     1  UNL1        0.0512
     22 C         142.9011  140.5589  169.4781 C.3     1  UNL1        0.1389
     23 O         143.6557  140.3193  170.7521 O.3     1  UNL1       -0.3819
     24 H         144.5987  140.4946  170.6073 H       1  UNL1        0.2104
@<TRIPOS>BOND
     1    19    20    1
     2    20    18    1
     3    17    18    1
     4    17    21    1
     5    21    22    1
     6    22    23    1
     7    17    15    1
     8    15     1    1
     9     1     2   ar
    10     2     3   ar
    11     3     4    1
    12     3     5   ar
    13     5     6   ar
    14     6     7   ar
    15     7     8    1
    16     7     9   ar
    17     9    10   ar
    18    10    11   ar
    19    11    12   ar
    20    12     1   ar
    21    12     6   ar
    22    23    24    1
    23    15    16    1
    24     4    13    1
    25     4    14    1
@<TRIPOS>MOLECULE
*****
 24 25 0 0 0
SMALL
GASTEIGER

@<TRIPOS>ATOM
      1 C         141.7055  141.5592  163.3346 C.ar    1  UNL1        0.1328
      2 N         143.1931  141.3763  163.2761 N.ar    1  UNL1       -0.1993
      3 C         143.7986  140.0444  163.6066 C.ar    1  UNL1        0.2149
      4 N         145.2863  139.8616  163.5481 N.pl3   1  UNL1       -0.3274
      5 N         142.9165  138.8952  163.9955 N.ar    1  UNL1       -0.2116
      6 C         141.4288  139.0780  164.0539 C.ar    1  UNL1        0.1142
      7 C         140.5467  137.9289  164.4428 C.ar    1  UNL1        0.1578
      8 F         141.1522  136.5969  164.7733 F       1  UNL1       -0.2026
      9 C         139.0590  138.1117  164.5013 C.ar    1  UNL1        0.0312
     10 C         138.4535  139.4437  164.1708 C.ar    1  UNL1        0.0025
     11 C         139.3356  140.5928  163.7819 C.ar    1  UNL1        0.0044
     12 C         140.8233  140.4100  163.7235 C.ar    1  UNL1        0.0514
     13 H         145.8653  140.6158  163.2928 H       1  UNL1        0.1452
     14 H         145.6838  138.9874  163.7650 H       1  UNL1        0.1452
     15 N         141.0999  142.8911  163.0041 N.pl3   1  UNL1       -0.3195
     16 H         140.7006  143.0439  162.1173 H       1  UNL1        0.1481
     17 C         141.1028  143.9903  164.0248 C.3     1  UNL1        0.0729
     18 C         140.2188  143.8943  165.2328 C.3     1  UNL1        0.0196
     19 C         137.7279  144.0102  164.5032 C.3     1  UNL1        0.0001
     20 C         138.8917  144.5935  165.2484 C.3     1  UNL1        0.0017
     21 C         141.9898  145.1854  163.8375 C.3     1  UNL1        0.0512
     22 C         143.4058  145.0038  163.3773 C.3     1  UNL1        0.1389
     23 O         143.6905  144.2793  162.0951 O.3     1  UNL1       -0.3819
     24 H         143.4282  143.3497  162.1839 H       1  UNL1        0.2104
@<TRIPOS>BOND
     1    19    20    1
     2    20    18    1
     3    17    18    1
     4    17    21    1
     5    21    22    1
     6    22    23    1
     7    17    15    1
     8    15     1    1
     9     1     2   ar
    10     2     3   ar
    11     3     4    1
    12     3     5   ar
    13     5     6   ar
    14     6     7   ar
    15     7     8    1
    16     7     9   ar
    17     9    10   ar
    18    10    11   ar
    19    11    12   ar
    20    12     1   ar
    21    12     6   ar
    22    23    24    1
    23    15    16    1
    24     4    13    1
    25     4    14    1
