@<TRIPOS>MOLECULE
*****
 36 39 0 0 0
SMALL
GASTEIGER

@<TRIPOS>ATOM
      1 C         142.1402  143.9992  163.0905 C.ar    1  UNL1        0.0527
      2 C         143.4705  144.2527  163.7356 C.ar    1  UNL1        0.0466
      3 C         143.8407  143.5335  164.9987 C.ar    1  UNL1        0.1684
      4 F         145.1709  143.7870  165.6439 F       1  UNL1       -0.2018
      5 C         142.8806  142.5607  165.6168 C.ar    1  UNL1        0.1652
      6 F         143.2509  141.8415  166.8800 F       1  UNL1       -0.2021
      7 C         141.5504  142.3071  164.9717 C.ar    1  UNL1        0.0288
      8 C         141.1802  143.0264  163.7086 C.ar    1  UNL1        0.0146
      9 C         140.5903  141.3343  165.5898 C.3     1  UNL1        0.1081
     10 C         140.2435  142.5708  166.3649 C.3     1  UNL1        0.0291
     11 N         139.5098  140.7910  166.4771 N.2     1  UNL1       -0.2509
     12 C         139.1096  139.3490  166.3746 C.2     1  UNL1        0.1482
     13 N         138.0292  138.8056  167.2618 N.pl3   1  UNL1       -0.3380
     14 S         139.7899  138.4503  165.3849 S.3     1  UNL1       -0.0800
     15 C         140.8705  138.9937  164.4975 C.3     1  UNL1        0.0752
     16 C         141.9510  139.5371  163.6103 C.3     1  UNL1        0.0160
     17 C         141.2707  140.4357  164.6000 C.3     1  UNL1        0.0375
     18 H         137.5826  139.3954  167.9115 H       1  UNL1        0.1442
     19 H         137.7665  137.8592  167.1946 H       1  UNL1        0.1442
     20 C         141.0322  137.6424  163.8669 C.3     1  UNL1        0.1525
     21 O         140.7681  137.4621  162.4014 O.3     1  UNL1       -0.3502
     22 C         139.4653  137.9162  161.8127 C.3     1  UNL1        0.1741
     23 C         141.9907  144.0605  160.4974 C.2     1  UNL1        0.2688
     24 O         142.5815  142.6834  160.4308 O.2     1  UNL1       -0.2681
     25 N         141.7700  144.7184  161.8273 N.am    1  UNL1       -0.2790
     26 H         141.3823  145.6223  161.8711 H       1  UNL1        0.1552
     27 C         140.8801  146.2182  156.7078 C.ar    1  UNL1        0.2457
     28 C         142.2098  145.5330  156.8187 C.ar    1  UNL1        0.1566
     29 N         142.5800  144.8138  158.0818 N.ar    1  UNL1       -0.2328
     30 C         141.6205  144.7797  159.2343 C.ar    1  UNL1        0.1541
     31 C         140.2907  145.4650  159.1235 C.ar    1  UNL1        0.1258
     32 N         139.9206  146.1842  157.8604 N.ar    1  UNL1       -0.2070
     33 O         140.5100  146.9375  155.4447 O.3     1  UNL1       -0.4444
     34 C         139.1085  147.4347  155.2479 C.3     1  UNL1        0.2838
     35 C         138.4035  150.2593  155.9722 C.1     1  UNL1       -0.0105
     36 C         138.7560  148.8470  155.6101 C.1     1  UNL1       -0.0306
@<TRIPOS>BOND
     1    35    36    3
     2    36    34    1
     3    34    33    1
     4    33    27    1
     5    27    28   ar
     6    28    29   ar
     7    29    30   ar
     8    30    23    1
     9    23    24    2
    10    23    25   am
    11    25     1    1
    12     1     2   ar
    13     2     3   ar
    14     3     4    1
    15     3     5   ar
    16     5     6    1
    17     5     7   ar
    18     7     9    1
    19     9    10    1
    20     9    11    1
    21    11    12    2
    22    12    13    1
    23    12    14    1
    24    14    15    1
    25    15    20    1
    26    20    21    1
    27    21    22    1
    28    15    16    1
    29    17    16    1
    30     7     8   ar
    31    30    31   ar
    32    31    32   ar
    33    32    27   ar
    34     8     1   ar
    35    17     9    1
    36    17    15    1
    37    25    26    1
    38    13    18    1
    39    13    19    1
@<TRIPOS>MOLECULE
*****
 36 39 0 0 0
SMALL
GASTEIGER

@<TRIPOS>ATOM
      1 C         142.3007  140.7323  164.0071 C.ar    1  UNL1        0.0527
      2 C         143.5828  139.9668  164.1500 C.ar    1  UNL1        0.0466
      3 C         143.8647  139.2048  165.4108 C.ar    1  UNL1        0.1684
      4 F         145.1468  138.4393  165.5537 F       1  UNL1       -0.2018
      5 C         142.8646  139.2082  166.5288 C.ar    1  UNL1        0.1652
      6 F         143.1467  138.4461  167.7896 F       1  UNL1       -0.2021
      7 C         141.5826  139.9736  166.3859 C.ar    1  UNL1        0.0288
      8 C         141.3006  140.7357  165.1251 C.ar    1  UNL1        0.0146
      9 C         140.5825  139.9770  167.5039 C.3     1  UNL1        0.1081
     10 C         139.8893  139.0636  166.5369 C.3     1  UNL1        0.0291
     11 N         139.3417  139.6632  168.2860 N.2     1  UNL1       -0.2509
     12 C         139.1415  140.2616  169.6469 C.2     1  UNL1        0.1482
     13 N         137.9007  139.9478  170.4290 N.pl3   1  UNL1       -0.3380
     14 S         140.1821  141.1738  170.2255 S.3     1  UNL1       -0.0800
     15 C         141.4230  141.4877  169.4434 C.3     1  UNL1        0.0752
     16 C         142.6639  141.8015  168.6612 C.3     1  UNL1        0.0160
     17 C         141.6232  140.8893  168.0825 C.3     1  UNL1        0.0375
     18 H         137.2176  139.3491  170.0492 H       1  UNL1        0.1442
     19 H         137.7693  140.3405  171.3222 H       1  UNL1        0.1442
     20 C         141.9083  142.3598  170.5631 C.3     1  UNL1        0.1525
     21 O         141.7527  143.8492  170.4752 O.3     1  UNL1       -0.3502
     22 C         140.4300  144.4437  170.0918 C.3     1  UNL1        0.1741
     23 C         142.3464  142.9559  162.6640 C.2     1  UNL1        0.2688
     24 O         142.9560  143.6552  163.8427 O.2     1  UNL1       -0.2681
     25 N         142.0188  141.4943  162.7462 N.am    1  UNL1       -0.2790
     26 H         141.6187  141.0353  161.9727 H       1  UNL1        0.1552
     27 C         141.5005  145.2421  158.8815 C.ar    1  UNL1        0.2457
     28 C         140.7038  145.5220  160.1212 C.ar    1  UNL1        0.1566
     29 N         140.9857  144.7600  161.3820 N.ar    1  UNL1       -0.2328
     30 C         142.0645  143.7179  161.4032 C.ar    1  UNL1        0.1541
     31 C         142.8612  143.4379  160.1635 C.ar    1  UNL1        0.1258
     32 N         142.5793  144.2000  158.9027 N.ar    1  UNL1       -0.2070
     33 O         141.2185  146.0041  157.6207 O.3     1  UNL1       -0.4444
     34 C         139.8107  146.3918  157.2776 C.3     1  UNL1        0.2838
     35 C         139.2418  147.8802  154.7357 C.1     1  UNL1       -0.0105
     36 C         139.5263  147.1360  156.0066 C.1     1  UNL1       -0.0306
@<TRIPOS>BOND
     1    35    36    3
     2    36    34    1
     3    34    33    1
     4    33    27    1
     5    27    28   ar
     6    28    29   ar
     7    29    30   ar
     8    30    23    1
     9    23    24    2
    10    23    25   am
    11    25     1    1
    12     1     2   ar
    13     2     3   ar
    14     3     4    1
    15     3     5   ar
    16     5     6    1
    17     5     7   ar
    18     7     9    1
    19     9    10    1
    20     9    11    1
    21    11    12    2
    22    12    13    1
    23    12    14    1
    24    14    15    1
    25    15    20    1
    26    20    21    1
    27    21    22    1
    28    15    16    1
    29    17    16    1
    30     7     8   ar
    31    30    31   ar
    32    31    32   ar
    33    32    27   ar
    34     8     1   ar
    35    17     9    1
    36    17    15    1
    37    25    26    1
    38    13    18    1
    39    13    19    1
@<TRIPOS>MOLECULE
*****
 36 39 0 0 0
SMALL
GASTEIGER

@<TRIPOS>ATOM
      1 C         139.7274  144.3228  162.5111 C.ar    1  UNL1        0.0527
      2 C         138.9979  145.1331  163.5412 C.ar    1  UNL1        0.0466
      3 C         139.0274  144.7166  164.9819 C.ar    1  UNL1        0.1684
      4 F         138.2979  145.5269  166.0120 F       1  UNL1       -0.2018
      5 C         139.7865  143.4897  165.3925 C.ar    1  UNL1        0.1652
      6 F         139.8160  143.0733  166.8332 F       1  UNL1       -0.2021
      7 C         140.5161  142.6794  164.3624 C.ar    1  UNL1        0.0288
      8 C         140.4865  143.0959  162.9218 C.ar    1  UNL1        0.0146
      9 C         141.2752  141.4525  164.7731 C.3     1  UNL1        0.1081
     10 C         142.3570  142.4836  164.9019 C.3     1  UNL1        0.0291
     11 N         142.4100  140.5838  165.2284 N.2     1  UNL1       -0.2509
     12 C         142.1993  139.1100  165.4123 C.2     1  UNL1        0.1482
     13 N         143.3341  138.2413  165.8677 N.pl3   1  UNL1       -0.3380
     14 S         140.8538  138.5051  165.1408 S.3     1  UNL1       -0.0800
     15 C         139.7189  139.3739  164.6854 C.3     1  UNL1        0.0752
     16 C         138.5842  140.2427  164.2300 C.3     1  UNL1        0.0160
     17 C         139.9296  140.8476  164.5015 C.3     1  UNL1        0.0375
     18 H         144.2172  138.6383  166.0459 H       1  UNL1        0.1442
     19 H         143.1958  137.2740  165.9884 H       1  UNL1        0.1442
     20 C         138.8205  138.1739  164.6348 C.3     1  UNL1        0.1525
     21 O         138.3155  137.5608  165.9073 O.3     1  UNL1       -0.3502
     22 C         137.6762  138.4247  166.9538 C.3     1  UNL1        0.1741
     23 C         140.9819  144.9547  160.3255 C.2     1  UNL1        0.2688
     24 O         142.2954  144.7535  161.0213 O.2     1  UNL1       -0.2681
     25 N         139.6978  144.7393  161.0705 N.am    1  UNL1       -0.2790
     26 H         138.8357  144.8713  160.6138 H       1  UNL1        0.1552
     27 C         140.8932  146.2043  156.0034 C.ar    1  UNL1        0.2457
     28 C         139.7332  146.5215  156.8998 C.ar    1  UNL1        0.1566
     29 N         139.7627  146.1050  158.3405 N.ar    1  UNL1       -0.2328
     30 C         140.9524  145.3712  158.8848 C.ar    1  UNL1        0.1541
     31 C         142.1125  145.0539  157.9884 C.ar    1  UNL1        0.1258
     32 N         142.0830  145.4705  156.5477 N.ar    1  UNL1       -0.2070
     33 O         140.8637  146.6208  154.5627 O.3     1  UNL1       -0.4444
     34 C         139.8827  147.6577  154.1017 C.3     1  UNL1        0.2838
     35 C         140.6432  150.5595  154.1296 C.1     1  UNL1       -0.0105
     36 C         140.2630  149.1086  154.1156 C.1     1  UNL1       -0.0306
@<TRIPOS>BOND
     1    35    36    3
     2    36    34    1
     3    34    33    1
     4    33    27    1
     5    27    28   ar
     6    28    29   ar
     7    29    30   ar
     8    30    23    1
     9    23    24    2
    10    23    25   am
    11    25     1    1
    12     1     2   ar
    13     2     3   ar
    14     3     4    1
    15     3     5   ar
    16     5     6    1
    17     5     7   ar
    18     7     9    1
    19     9    10    1
    20     9    11    1
    21    11    12    2
    22    12    13    1
    23    12    14    1
    24    14    15    1
    25    15    20    1
    26    20    21    1
    27    21    22    1
    28    15    16    1
    29    17    16    1
    30     7     8   ar
    31    30    31   ar
    32    31    32   ar
    33    32    27   ar
    34     8     1   ar
    35    17     9    1
    36    17    15    1
    37    25    26    1
    38    13    18    1
    39    13    19    1
@<TRIPOS>MOLECULE
*****
 36 39 0 0 0
SMALL
GASTEIGER

@<TRIPOS>ATOM
      1 C         139.7283  140.3097  160.7359 C.ar    1  UNL1        0.0527
      2 C         138.4491  139.5292  160.6704 C.ar    1  UNL1        0.0466
      3 C         138.1525  138.4868  161.7073 C.ar    1  UNL1        0.1684
      4 F         136.8732  137.7063  161.6418 F       1  UNL1       -0.2018
      5 C         139.1352  138.2248  162.8100 C.ar    1  UNL1        0.1652
      6 F         138.8385  137.1824  163.8469 F       1  UNL1       -0.2021
      7 C         140.4144  139.0053  162.8756 C.ar    1  UNL1        0.0288
      8 C         140.7110  140.0477  161.8386 C.ar    1  UNL1        0.0146
      9 C         141.3971  138.7434  163.9782 C.3     1  UNL1        0.1081
     10 C         141.9894  137.8929  162.8938 C.3     1  UNL1        0.0291
     11 N         142.5855  138.1861  164.7042 N.2     1  UNL1       -0.2509
     12 C         142.8403  138.5702  166.1316 C.2     1  UNL1        0.1482
     13 N         144.0286  138.0129  166.8577 N.pl3   1  UNL1       -0.3380
     14 S         141.9067  139.5117  166.8330 S.3     1  UNL1       -0.0800
     15 C         140.7182  140.0691  166.1070 C.3     1  UNL1        0.0752
     16 C         139.5299  140.6264  165.3810 C.3     1  UNL1        0.0160
     17 C         140.4635  139.6849  164.6796 C.3     1  UNL1        0.0375
     18 H         144.6414  137.3950  166.3973 H       1  UNL1        0.1442
     19 H         144.1958  138.2651  167.7945 H       1  UNL1        0.1442
     20 C         140.3263  140.8344  167.3360 C.3     1  UNL1        0.1525
     21 O         139.5619  140.1529  168.4320 O.3     1  UNL1       -0.3502
     22 C         139.4221  140.8133  169.7716 C.3     1  UNL1        0.1741
     23 C         139.2277  142.6223  159.6629 C.2     1  UNL1        0.2688
     24 O         138.1339  142.8499  160.6638 O.2     1  UNL1       -0.2681
     25 N         140.0249  141.3521  159.6990 N.am    1  UNL1       -0.2790
     26 H         140.7428  141.2026  159.0420 H       1  UNL1        0.1552
     27 C         140.1174  145.7496  156.5519 C.ar    1  UNL1        0.2457
     28 C         140.4561  146.0051  157.9906 C.ar    1  UNL1        0.1566
     29 N         140.1596  144.9627  159.0276 N.ar    1  UNL1       -0.2328
     30 C         139.5242  143.6647  158.6259 C.ar    1  UNL1        0.1541
     31 C         139.1855  143.4090  157.1871 C.ar    1  UNL1        0.1258
     32 N         139.4821  144.4514  156.1502 N.ar    1  UNL1       -0.2070
     33 O         140.4140  146.7920  155.5149 O.3     1  UNL1       -0.4444
     34 C         139.2946  147.5807  154.9028 C.3     1  UNL1        0.2838
     35 C         138.3699  150.1248  156.1962 C.1     1  UNL1       -0.0105
     36 C         138.8323  148.8528  155.5495 C.1     1  UNL1       -0.0306
@<TRIPOS>BOND
     1    35    36    3
     2    36    34    1
     3    34    33    1
     4    33    27    1
     5    27    28   ar
     6    28    29   ar
     7    29    30   ar
     8    30    23    1
     9    23    24    2
    10    23    25   am
    11    25     1    1
    12     1     2   ar
    13     2     3   ar
    14     3     4    1
    15     3     5   ar
    16     5     6    1
    17     5     7   ar
    18     7     9    1
    19     9    10    1
    20     9    11    1
    21    11    12    2
    22    12    13    1
    23    12    14    1
    24    14    15    1
    25    15    20    1
    26    20    21    1
    27    21    22    1
    28    15    16    1
    29    17    16    1
    30     7     8   ar
    31    30    31   ar
    32    31    32   ar
    33    32    27   ar
    34     8     1   ar
    35    17     9    1
    36    17    15    1
    37    25    26    1
    38    13    18    1
    39    13    19    1
@<TRIPOS>MOLECULE
*****
 36 39 0 0 0
SMALL
GASTEIGER

@<TRIPOS>ATOM
      1 C         140.8535  142.5059  161.9402 C.ar    1  UNL1        0.0527
      2 C         140.1792  143.8450  161.8925 C.ar    1  UNL1        0.0466
      3 C         139.0361  144.1425  162.8170 C.ar    1  UNL1        0.1684
      4 F         138.3619  145.4815  162.7693 F       1  UNL1       -0.2018
      5 C         138.5673  143.1009  163.7893 C.ar    1  UNL1        0.1652
      6 F         137.4242  143.3985  164.7138 F       1  UNL1       -0.2021
      7 C         139.2416  141.7619  163.8370 C.ar    1  UNL1        0.0288
      8 C         140.3846  141.4644  162.9125 C.ar    1  UNL1        0.0146
      9 C         138.7727  140.7203  164.8094 C.3     1  UNL1        0.1081
     10 C         137.9527  140.3456  163.6106 C.3     1  UNL1        0.0291
     11 N         138.0191  139.5486  165.3653 N.2     1  UNL1       -0.2509
     12 C         138.2483  139.1135  166.7824 C.2     1  UNL1        0.1482
     13 N         137.4947  137.9418  167.3384 N.pl3   1  UNL1       -0.3380
     14 S         139.2311  139.8500  167.6435 S.3     1  UNL1       -0.0800
     15 C         139.9848  141.0217  167.0876 C.3     1  UNL1        0.0752
     16 C         140.7384  142.1934  166.5316 C.3     1  UNL1        0.0160
     17 C         139.7556  141.4569  165.6705 C.3     1  UNL1        0.0375
     18 H         136.8496  137.4583  166.7732 H       1  UNL1        0.1442
     19 H         137.6451  137.6562  168.2685 H       1  UNL1        0.1442
     20 C         140.6846  141.1957  168.4028 C.3     1  UNL1        0.1525
     21 O         140.7198  142.5431  169.0612 O.3     1  UNL1       -0.3502
     22 C         139.9448  142.7817  170.3232 C.3     1  UNL1        0.1741
     23 C         141.7309  141.8777  159.5768 C.2     1  UNL1        0.2688
     24 O         140.3222  141.8446  159.0627 O.2     1  UNL1       -0.2681
     25 N         141.9965  142.2084  161.0156 N.am    1  UNL1       -0.2790
     26 H         142.9211  142.2302  161.3531 H       1  UNL1        0.1552
     27 C         145.1602  140.9852  156.8031 C.ar    1  UNL1        0.2457
     28 C         144.7209  142.4028  157.0207 C.ar    1  UNL1        0.1566
     29 N         143.5778  142.7003  157.9452 N.ar    1  UNL1       -0.2328
     30 C         142.8740  141.5802  158.6522 C.ar    1  UNL1        0.1541
     31 C         143.3132  140.1625  158.4347 C.ar    1  UNL1        0.1258
     32 N         144.4563  139.8650  157.5102 N.ar    1  UNL1       -0.2070
     33 O         146.3033  140.6877  155.8786 O.3     1  UNL1       -0.4444
     34 C         147.1043  141.8114  155.2905 C.3     1  UNL1        0.2838
     35 C         150.1005  141.6637  155.2633 C.1     1  UNL1       -0.0105
     36 C         148.6024  141.7375  155.2770 C.1     1  UNL1       -0.0306
@<TRIPOS>BOND
     1    35    36    3
     2    36    34    1
     3    34    33    1
     4    33    27    1
     5    27    28   ar
     6    28    29   ar
     7    29    30   ar
     8    30    23    1
     9    23    24    2
    10    23    25   am
    11    25     1    1
    12     1     2   ar
    13     2     3   ar
    14     3     4    1
    15     3     5   ar
    16     5     6    1
    17     5     7   ar
    18     7     9    1
    19     9    10    1
    20     9    11    1
    21    11    12    2
    22    12    13    1
    23    12    14    1
    24    14    15    1
    25    15    20    1
    26    20    21    1
    27    21    22    1
    28    15    16    1
    29    17    16    1
    30     7     8   ar
    31    30    31   ar
    32    31    32   ar
    33    32    27   ar
    34     8     1   ar
    35    17     9    1
    36    17    15    1
    37    25    26    1
    38    13    18    1
    39    13    19    1
@<TRIPOS>MOLECULE
*****
 36 39 0 0 0
SMALL
GASTEIGER

@<TRIPOS>ATOM
      1 C         142.9698  138.1064  160.9747 C.ar    1  UNL1        0.0527
      2 C         144.1484  138.9869  161.2675 C.ar    1  UNL1        0.0466
      3 C         144.1876  139.7914  162.5328 C.ar    1  UNL1        0.1684
      4 F         145.3662  140.6718  162.8257 F       1  UNL1       -0.2018
      5 C         143.0481  139.7155  163.5055 C.ar    1  UNL1        0.1652
      6 F         143.0874  140.5201  164.7708 F       1  UNL1       -0.2021
      7 C         141.8695  138.8351  163.2127 C.ar    1  UNL1        0.0288
      8 C         141.8303  138.0306  161.9473 C.ar    1  UNL1        0.0146
      9 C         140.7301  138.7592  164.1853 C.3     1  UNL1        0.1081
     10 C         141.5825  137.6349  164.6944 C.3     1  UNL1        0.0291
     11 N         139.8867  138.2928  165.3347 N.2     1  UNL1       -0.2509
     12 C         138.5866  138.9771  165.6372 C.2     1  UNL1        0.1482
     13 N         137.7432  138.5108  166.7866 N.pl3   1  UNL1       -0.3380
     14 S         138.1299  140.1278  164.7902 S.3     1  UNL1       -0.0800
     15 C         138.9733  140.5942  163.6408 C.3     1  UNL1        0.0752
     16 C         139.8167  141.0606  162.4913 C.3     1  UNL1        0.0160
     17 C         140.2734  139.9099  163.3383 C.3     1  UNL1        0.0375
     18 H         138.0430  137.7556  167.3425 H       1  UNL1        0.1442
     19 H         136.8899  138.9600  166.9851 H       1  UNL1        0.1442
     20 C         137.9590  141.6537  163.3264 C.3     1  UNL1        0.1525
     21 O         138.0947  143.0228  163.9240 O.3     1  UNL1       -0.3502
     22 C         137.7884  144.2360  163.0967 C.3     1  UNL1        0.1741
     23 C         142.4679  137.9364  158.4312 C.2     1  UNL1        0.2688
     24 O         142.0444  139.3753  158.4186 O.2     1  UNL1       -0.2681
     25 N         142.9306  137.3019  159.7093 N.am    1  UNL1       -0.2790
     26 H         143.2086  136.3575  159.7177 H       1  UNL1        0.1552
     27 C         142.3505  135.5228  154.6350 C.ar    1  UNL1        0.2457
     28 C         143.6657  135.8338  155.2857 C.ar    1  UNL1        0.1566
     29 N         143.7049  136.6383  156.5511 N.ar    1  UNL1       -0.2328
     30 C         142.4288  137.1319  157.1658 C.ar    1  UNL1        0.1541
     31 C         141.1135  136.8209  156.5152 C.ar    1  UNL1        0.1258
     32 N         141.0743  136.0164  155.2498 N.ar    1  UNL1       -0.2070
     33 O         142.3113  134.7183  153.3697 O.3     1  UNL1       -0.4444
     34 C         142.2027  133.2236  153.4343 C.3     1  UNL1        0.2838
     35 C         143.8452  131.6847  155.4177 C.1     1  UNL1       -0.0105
     36 C         143.0239  132.4541  154.4260 C.1     1  UNL1       -0.0306
@<TRIPOS>BOND
     1    35    36    3
     2    36    34    1
     3    34    33    1
     4    33    27    1
     5    27    28   ar
     6    28    29   ar
     7    29    30   ar
     8    30    23    1
     9    23    24    2
    10    23    25   am
    11    25     1    1
    12     1     2   ar
    13     2     3   ar
    14     3     4    1
    15     3     5   ar
    16     5     6    1
    17     5     7   ar
    18     7     9    1
    19     9    10    1
    20     9    11    1
    21    11    12    2
    22    12    13    1
    23    12    14    1
    24    14    15    1
    25    15    20    1
    26    20    21    1
    27    21    22    1
    28    15    16    1
    29    17    16    1
    30     7     8   ar
    31    30    31   ar
    32    31    32   ar
    33    32    27   ar
    34     8     1   ar
    35    17     9    1
    36    17    15    1
    37    25    26    1
    38    13    18    1
    39    13    19    1
@<TRIPOS>MOLECULE
*****
 36 39 0 0 0
SMALL
GASTEIGER

@<TRIPOS>ATOM
      1 C         142.0486  142.3985  161.4065 C.ar    1  UNL1        0.0527
      2 C         142.6410  143.7599  161.6200 C.ar    1  UNL1        0.0466
      3 C         143.5346  144.0126  162.7979 C.ar    1  UNL1        0.1684
      4 F         144.1271  145.3740  163.0114 F       1  UNL1       -0.2018
      5 C         143.8359  142.9039  163.7623 C.ar    1  UNL1        0.1652
      6 F         144.7296  143.1567  164.9401 F       1  UNL1       -0.2021
      7 C         143.2435  141.5425  163.5488 C.ar    1  UNL1        0.0288
      8 C         142.3499  141.2897  162.3709 C.ar    1  UNL1        0.0146
      9 C         143.5448  140.4338  164.5132 C.3     1  UNL1        0.1081
     10 C         144.6030  140.1765  163.4816 C.3     1  UNL1        0.0291
     11 N         144.2136  139.2357  165.1193 N.2     1  UNL1       -0.2509
     12 C         143.7196  138.6801  166.4221 C.2     1  UNL1        0.1482
     13 N         144.3884  137.4820  167.0282 N.pl3   1  UNL1       -0.3380
     14 S         142.5568  139.3224  167.1187 S.3     1  UNL1       -0.0800
     15 C         141.8880  140.5205  166.5125 C.3     1  UNL1        0.0752
     16 C         141.2192  141.7185  165.9064 C.3     1  UNL1        0.0160
     17 C         142.3820  141.0762  165.2098 C.3     1  UNL1        0.0375
     18 H         145.1515  137.0604  166.5710 H       1  UNL1        0.1442
     19 H         144.0641  137.1173  167.8832 H       1  UNL1        0.1442
     20 C         140.9314  140.5705  167.6668 C.3     1  UNL1        0.1525
     21 O         141.2035  139.7639  168.9019 O.3     1  UNL1       -0.3502
     22 C         140.4651  140.0654  170.1723 C.3     1  UNL1        0.1741
     23 C         139.6655  142.2336  160.3846 C.2     1  UNL1        0.2688
     24 O         139.0701  142.5742  161.7185 O.2     1  UNL1       -0.2681
     25 N         141.1549  142.1457  160.2286 N.am    1  UNL1       -0.2790
     26 H         141.5458  141.9222  159.3531 H       1  UNL1        0.1552
     27 C         136.9845  141.4755  156.8509 C.ar    1  UNL1        0.2457
     28 C         137.6105  142.8252  157.0415 C.ar    1  UNL1        0.1566
     29 N         138.5041  143.0779  158.2194 N.ar    1  UNL1       -0.2328
     30 C         138.7719  141.9809  159.2067 C.ar    1  UNL1        0.1541
     31 C         138.1459  140.6311  159.0162 C.ar    1  UNL1        0.1258
     32 N         137.2522  140.3784  157.8383 N.ar    1  UNL1       -0.2070
     33 O         136.0908  141.2228  155.6730 O.3     1  UNL1       -0.4444
     34 C         134.9443  140.2632  155.7937 C.3     1  UNL1        0.2838
     35 C         132.1227  141.2777  155.6959 C.1     1  UNL1       -0.0105
     36 C         133.5334  140.7704  155.7448 C.1     1  UNL1       -0.0306
@<TRIPOS>BOND
     1    35    36    3
     2    36    34    1
     3    34    33    1
     4    33    27    1
     5    27    28   ar
     6    28    29   ar
     7    29    30   ar
     8    30    23    1
     9    23    24    2
    10    23    25   am
    11    25     1    1
    12     1     2   ar
    13     2     3   ar
    14     3     4    1
    15     3     5   ar
    16     5     6    1
    17     5     7   ar
    18     7     9    1
    19     9    10    1
    20     9    11    1
    21    11    12    2
    22    12    13    1
    23    12    14    1
    24    14    15    1
    25    15    20    1
    26    20    21    1
    27    21    22    1
    28    15    16    1
    29    17    16    1
    30     7     8   ar
    31    30    31   ar
    32    31    32   ar
    33    32    27   ar
    34     8     1   ar
    35    17     9    1
    36    17    15    1
    37    25    26    1
    38    13    18    1
    39    13    19    1
@<TRIPOS>MOLECULE
*****
 36 39 0 0 0
SMALL
GASTEIGER

@<TRIPOS>ATOM
      1 C         141.8302  140.7158  162.0472 C.ar    1  UNL1        0.0527
      2 C         143.2392  140.2589  162.2839 C.ar    1  UNL1        0.0466
      3 C         143.5458  139.3324  163.4229 C.ar    1  UNL1        0.1684
      4 F         144.9548  138.8755  163.6596 F       1  UNL1       -0.2018
      5 C         142.4435  138.8627  164.3254 C.ar    1  UNL1        0.1652
      6 F         142.7503  137.9362  165.4644 F       1  UNL1       -0.2021
      7 C         141.0345  139.3196  164.0887 C.ar    1  UNL1        0.0288
      8 C         140.7279  140.2461  162.9497 C.ar    1  UNL1        0.0146
      9 C         139.9322  138.8499  164.9912 C.3     1  UNL1        0.1081
     10 C         139.7554  137.8971  163.8462 C.3     1  UNL1        0.0291
     11 N         138.7685  138.0494  165.4960 N.2     1  UNL1       -0.2509
     12 C         138.1645  138.3647  166.8322 C.2     1  UNL1        0.1482
     13 N         137.0008  137.5641  167.3370 N.pl3   1  UNL1       -0.3380
     14 S         138.7241  139.4807  167.6637 S.3     1  UNL1       -0.0800
     15 C         139.8879  140.2813  167.1590 C.3     1  UNL1        0.0752
     16 C         141.0516  141.0819  166.6542 C.3     1  UNL1        0.0160
     17 C         140.4919  139.9659  165.8227 C.3     1  UNL1        0.0375
     18 H         136.6335  136.8317  166.7913 H       1  UNL1        0.1442
     19 H         136.6044  137.7711  168.2141 H       1  UNL1        0.1442
     20 C         139.8623  141.1077  168.4105 C.3     1  UNL1        0.1525
     21 O         141.1085  141.2662  169.2302 O.3     1  UNL1       -0.3502
     22 C         141.3652  140.3496  170.3896 C.3     1  UNL1        0.1741
     23 C         141.8334  143.1052  161.0270 C.2     1  UNL1        0.2688
     24 O         142.4500  143.6414  162.2849 O.2     1  UNL1       -0.2681
     25 N         141.5235  141.6423  160.9082 N.am    1  UNL1       -0.2790
     26 H         141.1188  141.2903  160.0826 H       1  UNL1        0.1552
     27 C         140.9134  145.8848  157.6098 C.ar    1  UNL1        0.2457
     28 C         142.1894  145.0963  157.6126 C.ar    1  UNL1        0.1566
     29 N         142.4961  144.1698  158.7517 N.ar    1  UNL1       -0.2328
     30 C         141.5267  144.0317  159.8880 C.ar    1  UNL1        0.1541
     31 C         140.2506  144.8202  159.8852 C.ar    1  UNL1        0.1258
     32 N         139.9439  145.7467  158.7461 N.ar    1  UNL1       -0.2070
     33 O         140.6067  146.8113  156.4707 O.3     1  UNL1       -0.4444
     34 C         139.1841  147.1678  156.1561 C.3     1  UNL1        0.2838
     35 C         138.3666  150.0480  155.9649 C.1     1  UNL1       -0.0105
     36 C         138.7754  148.6080  156.0606 C.1     1  UNL1       -0.0306
@<TRIPOS>BOND
     1    35    36    3
     2    36    34    1
     3    34    33    1
     4    33    27    1
     5    27    28   ar
     6    28    29   ar
     7    29    30   ar
     8    30    23    1
     9    23    24    2
    10    23    25   am
    11    25     1    1
    12     1     2   ar
    13     2     3   ar
    14     3     4    1
    15     3     5   ar
    16     5     6    1
    17     5     7   ar
    18     7     9    1
    19     9    10    1
    20     9    11    1
    21    11    12    2
    22    12    13    1
    23    12    14    1
    24    14    15    1
    25    15    20    1
    26    20    21    1
    27    21    22    1
    28    15    16    1
    29    17    16    1
    30     7     8   ar
    31    30    31   ar
    32    31    32   ar
    33    32    27   ar
    34     8     1   ar
    35    17     9    1
    36    17    15    1
    37    25    26    1
    38    13    18    1
    39    13    19    1
@<TRIPOS>MOLECULE
*****
 36 39 0 0 0
SMALL
GASTEIGER

@<TRIPOS>ATOM
      1 C         142.8457  139.3101  160.4620 C.ar    1  UNL1        0.0527
      2 C         144.1292  139.5493  161.2005 C.ar    1  UNL1        0.0466
      3 C         144.2197  140.6570  162.2078 C.ar    1  UNL1        0.1684
      4 F         145.5032  140.8962  162.9463 F       1  UNL1       -0.2018
      5 C         143.0266  141.5256  162.4767 C.ar    1  UNL1        0.1652
      6 F         143.1172  142.6333  163.4841 F       1  UNL1       -0.2021
      7 C         141.7431  141.2864  161.7383 C.ar    1  UNL1        0.0288
      8 C         141.6526  140.1787  160.7310 C.ar    1  UNL1        0.0146
      9 C         140.5501  142.1550  162.0072 C.3     1  UNL1        0.1081
     10 C         141.1258  142.8641  160.8174 C.3     1  UNL1        0.0291
     11 N         139.5570  143.2698  161.8629 N.2     1  UNL1       -0.2509
     12 C         138.4026  143.3738  162.8150 C.2     1  UNL1        0.1482
     13 N         137.4095  144.4887  162.6707 N.pl3   1  UNL1       -0.3380
     14 S         138.2412  142.3630  163.9114 S.3     1  UNL1       -0.0800
     15 C         139.2343  141.2481  164.0557 C.3     1  UNL1        0.0752
     16 C         140.2274  140.1332  164.2000 C.3     1  UNL1        0.0160
     17 C         140.3888  141.1441  163.1036 C.3     1  UNL1        0.0375
     18 H         137.5154  145.1522  161.9511 H       1  UNL1        0.1442
     19 H         136.6518  144.5569  163.2956 H       1  UNL1        0.1442
     20 C         138.4747  140.7245  165.2384 C.3     1  UNL1        0.1525
     21 O         138.1282  139.2675  165.3220 O.3     1  UNL1       -0.3502
     22 C         137.8995  138.6265  166.6588 C.3     1  UNL1        0.1741
     23 C         142.9035  138.5041  157.9928 C.2     1  UNL1        0.2688
     24 O         143.1424  139.9135  157.5384 O.2     1  UNL1       -0.2681
     25 N         142.7551  138.2024  159.4547 N.am    1  UNL1       -0.2790
     26 H         142.5984  137.2774  159.7530 H       1  UNL1        0.1552
     27 C         142.6320  135.1809  154.9708 C.ar    1  UNL1        0.2457
     28 C         143.9603  135.8039  155.2833 C.ar    1  UNL1        0.1566
     29 N         144.0508  136.9116  156.2906 N.ar    1  UNL1       -0.2328
     30 C         142.8130  137.3964  156.9855 C.ar    1  UNL1        0.1541
     31 C         141.4847  136.7735  156.6730 C.ar    1  UNL1        0.1258
     32 N         141.3942  135.6658  155.6657 N.ar    1  UNL1       -0.2070
     33 O         142.5415  134.0733  153.9634 O.3     1  UNL1       -0.4444
     34 C         142.4179  132.6505  154.4223 C.3     1  UNL1        0.2838
     35 C         144.7250  131.3112  155.7946 C.1     1  UNL1       -0.0105
     36 C         143.5714  131.9808  155.1085 C.1     1  UNL1       -0.0306
@<TRIPOS>BOND
     1    35    36    3
     2    36    34    1
     3    34    33    1
     4    33    27    1
     5    27    28   ar
     6    28    29   ar
     7    29    30   ar
     8    30    23    1
     9    23    24    2
    10    23    25   am
    11    25     1    1
    12     1     2   ar
    13     2     3   ar
    14     3     4    1
    15     3     5   ar
    16     5     6    1
    17     5     7   ar
    18     7     9    1
    19     9    10    1
    20     9    11    1
    21    11    12    2
    22    12    13    1
    23    12    14    1
    24    14    15    1
    25    15    20    1
    26    20    21    1
    27    21    22    1
    28    15    16    1
    29    17    16    1
    30     7     8   ar
    31    30    31   ar
    32    31    32   ar
    33    32    27   ar
    34     8     1   ar
    35    17     9    1
    36    17    15    1
    37    25    26    1
    38    13    18    1
    39    13    19    1
