@<TRIPOS>MOLECULE
*****
 36 39 0 0 0
SMALL
GASTEIGER

@<TRIPOS>ATOM
      1 N         142.8456  143.4141  163.5597 N.am    1  UNL1       -0.2798
      2 C         143.9407  144.2031  164.2141 C.3     1  UNL1        0.0956
      3 C         144.2884  143.5286  165.5080 C.3     1  UNL1        0.0504
      4 C         143.4081  142.3227  165.6534 C.3     1  UNL1        0.1495
      5 C         142.5165  142.2520  164.4493 C.2     1  UNL1        0.2435
      6 O         141.4779  141.2032  164.1816 O.2     1  UNL1       -0.2731
      7 C         140.9635  144.5883  162.2074 C.3     1  UNL1        0.0196
      8 C         140.3119  144.9056  160.8941 C.3     1  UNL1        0.0176
      9 C         140.8908  144.3661  159.6199 C.3     1  UNL1        0.0576
     10 C         142.1214  143.5092  159.6590 C.3     1  UNL1        0.0177
     11 C         142.7730  143.1918  160.9722 C.3     1  UNL1        0.0212
     12 C         142.1940  143.7314  162.2465 C.3     1  UNL1        0.0754
     13 N         140.2394  144.6834  158.3065 N.3     1  UNL1       -0.2741
     14 C         140.2431  146.0909  157.7880 C.3     1  UNL1        0.0896
     15 C         139.5841  143.5930  157.5117 C.3     1  UNL1        0.0576
     16 C         138.5279  142.7354  158.1434 C.3     1  UNL1        0.0173
     17 C         139.9850  143.3602  156.0851 C.3     1  UNL1        0.0173
     18 C         140.3845  145.1279  163.4816 C.3     1  UNL1        0.0017
     19 C         138.6467  144.8922  165.3985 C.3     1  UNL1        0.0000
     20 C         139.4783  144.2714  164.3154 C.3     1  UNL1        0.0001
     21 N         143.4179  141.3572  166.8013 N.pl3   1  UNL1       -0.3122
     22 H         143.8178  140.4645  166.6902 H       1  UNL1        0.1486
     23 C         142.8183  141.7519  168.1184 C.ar    1  UNL1        0.1319
     24 N         143.5793  142.6472  169.0507 N.ar    1  UNL1       -0.2092
     25 C         142.9797  143.0419  170.3678 C.ar    1  UNL1        0.2000
     26 N         141.6191  142.5412  170.7525 N.ar    1  UNL1       -0.2239
     27 C         140.8580  141.6459  169.8202 C.ar    1  UNL1        0.0857
     28 C         139.4974  141.1453  170.2050 C.ar    1  UNL1        0.0192
     29 C         138.7364  140.2500  169.2727 C.ar    1  UNL1        0.0054
     30 C         139.3360  139.8553  167.9555 C.ar    1  UNL1        0.0716
     31 C         140.6966  140.3559  167.5708 C.ar    1  UNL1        0.0081
     32 C         141.4576  141.2513  168.5032 C.ar    1  UNL1        0.0491
     33 C         138.5749  138.9600  167.0232 C.3     1  UNL1        0.4186
     34 F         137.8139  138.0646  166.0908 F       1  UNL1       -0.1659
     35 F         137.4727  138.8443  168.0340 F       1  UNL1       -0.1659
     36 F         139.6771  139.0756  166.0125 F       1  UNL1       -0.1659
@<TRIPOS>BOND
     1    19    20    1
     2    20    18    1
     3     7    18    1
     4     7     8    1
     5     8     9    1
     6     9    13    1
     7    13    14    1
     8    13    15    1
     9    15    16    1
    10    15    17    1
    11     9    10    1
    12    10    11    1
    13    11    12    1
    14    12     1    1
    15     1     2    1
    16     2     3    1
    17     3     4    1
    18     4    21    1
    19    21    23    1
    20    23    24   ar
    21    24    25   ar
    22    25    26   ar
    23    26    27   ar
    24    27    28   ar
    25    28    29   ar
    26    29    30   ar
    27    30    33    1
    28    33    34    1
    29    33    35    1
    30    33    36    1
    31    30    31   ar
    32    31    32   ar
    33     4     5    1
    34     5     6    2
    35    12     7    1
    36     5     1   am
    37    32    23   ar
    38    32    27   ar
    39    21    22    1
@<TRIPOS>MOLECULE
*****
 36 39 0 0 0
SMALL
GASTEIGER

@<TRIPOS>ATOM
      1 N         142.7660  143.7813  162.7421 N.am    1  UNL1       -0.2798
      2 C         143.6535  144.7008  163.5275 C.3     1  UNL1        0.0956
      3 C         144.0714  143.9854  164.7780 C.3     1  UNL1        0.0504
      4 C         143.4422  142.6239  164.7654 C.3     1  UNL1        0.1495
      5 C         142.6354  142.4977  163.5071 C.2     1  UNL1        0.2435
      6 O         141.8380  141.2985  163.0876 O.2     1  UNL1       -0.2731
      7 C         140.9480  145.0226  161.3621 C.3     1  UNL1        0.0196
      8 C         140.3042  145.3323  160.0432 C.3     1  UNL1        0.0176
      9 C         140.8345  144.7105  158.7854 C.3     1  UNL1        0.0576
     10 C         142.0086  143.7790  158.8464 C.3     1  UNL1        0.0177
     11 C         142.6525  143.4693  160.1654 C.3     1  UNL1        0.0212
     12 C         142.1222  144.0910  161.4232 C.3     1  UNL1        0.0754
     13 N         140.1907  145.0201  157.4664 N.3     1  UNL1       -0.2741
     14 C         139.9788  146.4459  157.0515 C.3     1  UNL1        0.0896
     15 C         139.7589  143.9038  156.5622 C.3     1  UNL1        0.0576
     16 C         138.5551  143.0796  156.9106 C.3     1  UNL1        0.0173
     17 C         140.5309  143.6118  155.3098 C.3     1  UNL1        0.0173
     18 C         140.4178  145.6444  162.6199 C.3     1  UNL1        0.0017
     19 C         139.7342  144.3592  164.7719 C.3     1  UNL1        0.0000
     20 C         139.3785  144.9280  163.4303 C.3     1  UNL1        0.0001
     21 N         143.5932  141.5729  165.8250 N.pl3   1  UNL1       -0.3122
     22 H         144.1590  140.7845  165.6593 H       1  UNL1        0.1486
     23 C         142.8820  141.7233  167.1372 C.ar    1  UNL1        0.1319
     24 N         143.4823  142.5659  168.2233 N.ar    1  UNL1       -0.2092
     25 C         142.7711  142.7163  169.5354 C.ar    1  UNL1        0.2000
     26 N         141.4598  142.0240  169.7614 N.ar    1  UNL1       -0.2239
     27 C         140.8595  141.1814  168.6753 C.ar    1  UNL1        0.0857
     28 C         139.5482  140.4891  168.9013 C.ar    1  UNL1        0.0192
     29 C         138.9480  139.6464  167.8152 C.ar    1  UNL1        0.0054
     30 C         139.6591  139.4961  166.5030 C.ar    1  UNL1        0.0716
     31 C         140.9704  140.1884  166.2770 C.ar    1  UNL1        0.0081
     32 C         141.5707  141.0310  167.3632 C.ar    1  UNL1        0.0491
     33 C         139.0589  138.6535  165.4169 C.3     1  UNL1        0.4186
     34 F         138.4586  137.8108  164.3307 F       1  UNL1       -0.1659
     35 F         140.3628  137.9292  165.2582 F       1  UNL1       -0.1659
     36 F         137.7550  139.3777  165.5756 F       1  UNL1       -0.1659
@<TRIPOS>BOND
     1    19    20    1
     2    20    18    1
     3     7    18    1
     4     7     8    1
     5     8     9    1
     6     9    13    1
     7    13    14    1
     8    13    15    1
     9    15    16    1
    10    15    17    1
    11     9    10    1
    12    10    11    1
    13    11    12    1
    14    12     1    1
    15     1     2    1
    16     2     3    1
    17     3     4    1
    18     4    21    1
    19    21    23    1
    20    23    24   ar
    21    24    25   ar
    22    25    26   ar
    23    26    27   ar
    24    27    28   ar
    25    28    29   ar
    26    29    30   ar
    27    30    33    1
    28    33    34    1
    29    33    35    1
    30    33    36    1
    31    30    31   ar
    32    31    32   ar
    33     4     5    1
    34     5     6    2
    35    12     7    1
    36     5     1   am
    37    32    23   ar
    38    32    27   ar
    39    21    22    1
@<TRIPOS>MOLECULE
*****
 36 39 0 0 0
SMALL
GASTEIGER

@<TRIPOS>ATOM
      1 N         139.9903  143.9939  162.7456 N.am    1  UNL1       -0.2798
      2 C         139.3356  145.3421  162.6834 C.3     1  UNL1        0.0956
      3 C         139.8693  146.0615  161.4803 C.3     1  UNL1        0.0504
      4 C         140.8539  145.1580  160.7989 C.3     1  UNL1        0.1495
      5 C         140.9286  143.8802  161.5809 C.2     1  UNL1        0.2435
      6 O         141.7904  142.6964  161.2553 O.2     1  UNL1       -0.2731
      7 C         138.5870  142.0051  163.6540 C.3     1  UNL1        0.0196
      8 C         138.3457  140.9550  164.6976 C.3     1  UNL1        0.0176
      9 C         139.2665  140.8438  165.8765 C.3     1  UNL1        0.0576
     10 C         140.4285  141.7826  166.0117 C.3     1  UNL1        0.0177
     11 C         140.6698  142.8327  164.9681 C.3     1  UNL1        0.0212
     12 C         139.7490  142.9439  163.7892 C.3     1  UNL1        0.0754
     13 N         139.0253  139.7938  166.9202 N.3     1  UNL1       -0.2741
     14 C         139.4689  140.0258  168.3342 C.3     1  UNL1        0.0896
     15 C         138.3405  138.5116  166.5498 C.3     1  UNL1        0.0576
     16 C         138.8094  137.7272  165.3604 C.3     1  UNL1        0.0173
     17 C         137.1866  138.0139  167.3689 C.3     1  UNL1        0.0173
     18 C         137.6662  142.1163  162.4751 C.3     1  UNL1        0.0017
     19 C         137.8089  139.8410  161.2291 C.3     1  UNL1        0.0000
     20 C         137.9485  141.3345  161.2265 C.3     1  UNL1        0.0001
     21 N         141.6278  145.4765  159.5540 N.pl3   1  UNL1       -0.3122
     22 H         142.2956  146.1998  159.5610 H       1  UNL1        0.1486
     23 C         141.3842  144.6927  158.2984 C.ar    1  UNL1        0.1319
     24 N         141.9534  143.3125  158.1534 N.ar    1  UNL1       -0.2092
     25 C         141.7098  142.5289  156.8979 C.ar    1  UNL1        0.2000
     26 N         140.8970  143.1254  155.7872 N.ar    1  UNL1       -0.2239
     27 C         140.3278  144.5056  155.9322 C.ar    1  UNL1        0.0857
     28 C         139.5150  145.1021  154.8215 C.ar    1  UNL1        0.0192
     29 C         138.9458  146.4823  154.9665 C.ar    1  UNL1        0.0054
     30 C         139.1893  147.2660  156.2221 C.ar    1  UNL1        0.0716
     31 C         140.0022  146.6695  157.3327 C.ar    1  UNL1        0.0081
     32 C         140.5714  145.2892  157.1877 C.ar    1  UNL1        0.0491
     33 C         138.6201  148.6462  156.3670 C.3     1  UNL1        0.4186
     34 F         138.0509  150.0264  156.5119 F       1  UNL1       -0.1659
     35 F         138.4861  148.4356  157.8461 F       1  UNL1       -0.1659
     36 F         138.7541  148.8567  154.8880 F       1  UNL1       -0.1659
@<TRIPOS>BOND
     1    19    20    1
     2    20    18    1
     3     7    18    1
     4     7     8    1
     5     8     9    1
     6     9    13    1
     7    13    14    1
     8    13    15    1
     9    15    16    1
    10    15    17    1
    11     9    10    1
    12    10    11    1
    13    11    12    1
    14    12     1    1
    15     1     2    1
    16     2     3    1
    17     3     4    1
    18     4    21    1
    19    21    23    1
    20    23    24   ar
    21    24    25   ar
    22    25    26   ar
    23    26    27   ar
    24    27    28   ar
    25    28    29   ar
    26    29    30   ar
    27    30    33    1
    28    33    34    1
    29    33    35    1
    30    33    36    1
    31    30    31   ar
    32    31    32   ar
    33     4     5    1
    34     5     6    2
    35    12     7    1
    36     5     1   am
    37    32    23   ar
    38    32    27   ar
    39    21    22    1
@<TRIPOS>MOLECULE
*****
 36 39 0 0 0
SMALL
GASTEIGER

@<TRIPOS>ATOM
      1 N         139.1141  140.8991  164.0828 N.am    1  UNL1       -0.2798
      2 C         137.6796  140.8659  163.6455 C.3     1  UNL1        0.0956
      3 C         137.6509  140.5964  162.1702 C.3     1  UNL1        0.0504
      4 C         139.0675  140.4631  161.6956 C.3     1  UNL1        0.1495
      5 C         139.9718  140.6502  162.8777 C.2     1  UNL1        0.2435
      6 O         141.4708  140.5976  162.8581 O.2     1  UNL1       -0.2731
      7 C         140.1164  142.4932  165.8728 C.3     1  UNL1        0.0196
      8 C         140.6070  142.7332  167.2698 C.3     1  UNL1        0.0176
      9 C         140.5858  141.6191  168.2739 C.3     1  UNL1        0.0576
     10 C         140.0740  140.2649  167.8809 C.3     1  UNL1        0.0177
     11 C         139.5834  140.0249  166.4839 C.3     1  UNL1        0.0212
     12 C         139.6046  141.1391  165.4798 C.3     1  UNL1        0.0754
     13 N         141.0763  141.8590  169.6710 N.3     1  UNL1       -0.2741
     14 C         140.1846  142.5280  170.6746 C.3     1  UNL1        0.0896
     15 C         142.4587  141.4297  170.0645 C.3     1  UNL1        0.0576
     16 C         142.6676  140.1149  170.7555 C.3     1  UNL1        0.0173
     17 C         143.6322  142.3153  169.7668 C.3     1  UNL1        0.0173
     18 C         140.1376  143.6074  164.8687 C.3     1  UNL1        0.0017
     19 C         138.2208  144.4236  163.3164 C.3     1  UNL1        0.0000
     20 C         138.9107  144.4417  164.6482 C.3     1  UNL1        0.0001
     21 N         139.5034  140.1906  160.2865 N.pl3   1  UNL1       -0.3122
     22 H         139.9496  139.3415  160.0647 H       1  UNL1        0.1486
     23 C         139.2594  141.2118  159.2151 C.ar    1  UNL1        0.1319
     24 N         138.4409  140.8538  158.0102 N.ar    1  UNL1       -0.2092
     25 C         138.1969  141.8750  156.9390 C.ar    1  UNL1        0.2000
     26 N         138.7714  143.2542  157.0727 N.ar    1  UNL1       -0.2239
     27 C         139.5899  143.6122  158.2776 C.ar    1  UNL1        0.0857
     28 C         140.1643  144.9913  158.4113 C.ar    1  UNL1        0.0192
     29 C         140.9828  145.3493  159.6163 C.ar    1  UNL1        0.0054
     30 C         141.2268  144.3281  160.6876 C.ar    1  UNL1        0.0716
     31 C         140.6524  142.9489  160.5539 C.ar    1  UNL1        0.0081
     32 C         139.8338  142.5910  159.3489 C.ar    1  UNL1        0.0491
     33 C         142.0453  144.6860  161.8925 C.3     1  UNL1        0.4186
     34 F         142.8639  145.0440  163.0975 F       1  UNL1       -0.1659
     35 F         141.0650  145.7678  162.2370 F       1  UNL1       -0.1659
     36 F         143.0256  143.6043  161.5480 F       1  UNL1       -0.1659
@<TRIPOS>BOND
     1    19    20    1
     2    20    18    1
     3     7    18    1
     4     7     8    1
     5     8     9    1
     6     9    13    1
     7    13    14    1
     8    13    15    1
     9    15    16    1
    10    15    17    1
    11     9    10    1
    12    10    11    1
    13    11    12    1
    14    12     1    1
    15     1     2    1
    16     2     3    1
    17     3     4    1
    18     4    21    1
    19    21    23    1
    20    23    24   ar
    21    24    25   ar
    22    25    26   ar
    23    26    27   ar
    24    27    28   ar
    25    28    29   ar
    26    29    30   ar
    27    30    33    1
    28    33    34    1
    29    33    35    1
    30    33    36    1
    31    30    31   ar
    32    31    32   ar
    33     4     5    1
    34     5     6    2
    35    12     7    1
    36     5     1   am
    37    32    23   ar
    38    32    27   ar
    39    21    22    1
@<TRIPOS>MOLECULE
*****
 36 39 0 0 0
SMALL
GASTEIGER

@<TRIPOS>ATOM
      1 N         143.2242  140.2719  162.7239 N.am    1  UNL1       -0.2798
      2 C         144.1379  139.5051  163.6333 C.3     1  UNL1        0.0956
      3 C         144.2663  140.2724  164.9158 C.3     1  UNL1        0.0504
      4 C         143.4320  141.5135  164.7989 C.3     1  UNL1        0.1495
      5 C         142.7879  141.5131  163.4442 C.2     1  UNL1        0.2435
      6 O         141.8689  142.5687  162.9046 O.2     1  UNL1       -0.2731
      7 C         141.5760  139.0539  161.1269 C.3     1  UNL1        0.0196
      8 C         141.1699  138.6503  159.7405 C.3     1  UNL1        0.0176
      9 C         142.0057  139.0612  158.5646 C.3     1  UNL1        0.0576
     10 C         143.2476  139.8756  158.7752 C.3     1  UNL1        0.0177
     11 C         143.6538  140.2791  160.1616 C.3     1  UNL1        0.0212
     12 C         142.8180  139.8683  161.3374 C.3     1  UNL1        0.0754
     13 N         141.5996  138.6576  157.1781 N.3     1  UNL1       -0.2741
     14 C         141.0759  139.6866  156.2206 C.3     1  UNL1        0.0896
     15 C         141.7174  137.2251  156.7493 C.3     1  UNL1        0.0576
     16 C         140.6583  136.6125  155.8814 C.3     1  UNL1        0.0173
     17 C         142.8942  136.4051  157.1882 C.3     1  UNL1        0.0173
     18 C         140.7402  138.6431  162.3027 C.3     1  UNL1        0.0017
     19 C         141.2236  137.3645  164.5121 C.3     1  UNL1        0.0000
     20 C         141.0382  137.3618  163.0237 C.3     1  UNL1        0.0001
     21 N         143.2702  142.5695  165.8519 N.pl3   1  UNL1       -0.3122
     22 H         143.4370  143.5143  165.6312 H       1  UNL1        0.1486
     23 C         142.8540  142.1859  167.2411 C.ar    1  UNL1        0.1319
     24 N         143.6960  142.5902  168.4147 N.ar    1  UNL1       -0.2092
     25 C         143.2798  142.2066  169.8038 C.ar    1  UNL1        0.2000
     26 N         142.0217  141.4187  170.0192 N.ar    1  UNL1       -0.2239
     27 C         141.1798  141.0144  168.8456 C.ar    1  UNL1        0.0857
     28 C         139.9217  140.2265  169.0610 C.ar    1  UNL1        0.0192
     29 C         139.0798  139.8221  167.8873 C.ar    1  UNL1        0.0054
     30 C         139.4959  140.2057  166.4981 C.ar    1  UNL1        0.0716
     31 C         140.7540  140.9937  166.2827 C.ar    1  UNL1        0.0081
     32 C         141.5959  141.3980  167.4565 C.ar    1  UNL1        0.0491
     33 C         138.6540  139.8014  165.3244 C.3     1  UNL1        0.4186
     34 F         137.8119  139.3970  164.1507 F       1  UNL1       -0.1659
     35 F         139.4312  140.7355  164.4450 F       1  UNL1       -0.1659
     36 F         137.8767  138.8673  166.2037 F       1  UNL1       -0.1659
@<TRIPOS>BOND
     1    19    20    1
     2    20    18    1
     3     7    18    1
     4     7     8    1
     5     8     9    1
     6     9    13    1
     7    13    14    1
     8    13    15    1
     9    15    16    1
    10    15    17    1
    11     9    10    1
    12    10    11    1
    13    11    12    1
    14    12     1    1
    15     1     2    1
    16     2     3    1
    17     3     4    1
    18     4    21    1
    19    21    23    1
    20    23    24   ar
    21    24    25   ar
    22    25    26   ar
    23    26    27   ar
    24    27    28   ar
    25    28    29   ar
    26    29    30   ar
    27    30    33    1
    28    33    34    1
    29    33    35    1
    30    33    36    1
    31    30    31   ar
    32    31    32   ar
    33     4     5    1
    34     5     6    2
    35    12     7    1
    36     5     1   am
    37    32    23   ar
    38    32    27   ar
    39    21    22    1
@<TRIPOS>MOLECULE
*****
 36 39 0 0 0
SMALL
GASTEIGER

@<TRIPOS>ATOM
      1 N         138.8349  139.2638  163.4509 N.am    1  UNL1       -0.2798
      2 C         139.5045  138.1988  162.6340 C.3     1  UNL1        0.0956
      3 C         139.0696  138.3662  161.2082 C.3     1  UNL1        0.0504
      4 C         138.1312  139.5347  161.1439 C.3     1  UNL1        0.1495
      5 C         137.9861  140.0894  162.5300 C.2     1  UNL1        0.2435
      6 O         137.1408  141.2636  162.9257 O.2     1  UNL1       -0.2731
      7 C         140.1164  140.3008  165.4590 C.3     1  UNL1        0.0196
      8 C         140.2687  140.5045  166.9373 C.3     1  UNL1        0.0176
      9 C         139.2919  139.8749  167.8857 C.3     1  UNL1        0.0576
     10 C         138.1627  139.0417  167.3558 C.3     1  UNL1        0.0177
     11 C         138.0104  138.8380  165.8775 C.3     1  UNL1        0.0212
     12 C         138.9872  139.4675  164.9292 C.3     1  UNL1        0.0754
     13 N         139.4441  140.0785  169.3640 N.3     1  UNL1       -0.2741
     14 C         138.2479  139.9733  170.2628 C.3     1  UNL1        0.0896
     15 C         140.7928  140.3875  169.9435 C.3     1  UNL1        0.0576
     16 C         141.1033  141.7745  170.4228 C.3     1  UNL1        0.0173
     17 C         141.8309  139.3094  170.0436 C.3     1  UNL1        0.0173
     18 C         141.0932  140.9303  164.5106 C.3     1  UNL1        0.0017
     19 C         141.6359  143.4604  164.2778 C.3     1  UNL1        0.0000
     20 C         140.7969  142.2726  163.9102 C.3     1  UNL1        0.0001
     21 N         137.4563  140.0567  159.9102 N.pl3   1  UNL1       -0.3122
     22 H         136.4736  140.0921  159.8642 H       1  UNL1        0.1486
     23 C         138.2790  140.5248  158.7464 C.ar    1  UNL1        0.1319
     24 N         138.3422  139.7025  157.4936 N.ar    1  UNL1       -0.2092
     25 C         139.1648  140.1706  156.3299 C.ar    1  UNL1        0.2000
     26 N         139.9241  141.4611  156.4191 N.ar    1  UNL1       -0.2239
     27 C         139.8609  142.2835  157.6719 C.ar    1  UNL1        0.0857
     28 C         140.6203  143.5740  157.7611 C.ar    1  UNL1        0.0192
     29 C         140.5570  144.3964  159.0139 C.ar    1  UNL1        0.0054
     30 C         139.7344  143.9282  160.1777 C.ar    1  UNL1        0.0716
     31 C         138.9751  142.6377  160.0885 C.ar    1  UNL1        0.0081
     32 C         139.0383  141.8153  158.8356 C.ar    1  UNL1        0.0491
     33 C         139.6712  144.7506  161.4305 C.3     1  UNL1        0.4186
     34 F         139.6080  145.5731  162.6834 F       1  UNL1       -0.1659
     35 F         138.5519  143.8908  161.9384 F       1  UNL1       -0.1659
     36 F         140.7905  145.6104  160.9226 F       1  UNL1       -0.1659
@<TRIPOS>BOND
     1    19    20    1
     2    20    18    1
     3     7    18    1
     4     7     8    1
     5     8     9    1
     6     9    13    1
     7    13    14    1
     8    13    15    1
     9    15    16    1
    10    15    17    1
    11     9    10    1
    12    10    11    1
    13    11    12    1
    14    12     1    1
    15     1     2    1
    16     2     3    1
    17     3     4    1
    18     4    21    1
    19    21    23    1
    20    23    24   ar
    21    24    25   ar
    22    25    26   ar
    23    26    27   ar
    24    27    28   ar
    25    28    29   ar
    26    29    30   ar
    27    30    33    1
    28    33    34    1
    29    33    35    1
    30    33    36    1
    31    30    31   ar
    32    31    32   ar
    33     4     5    1
    34     5     6    2
    35    12     7    1
    36     5     1   am
    37    32    23   ar
    38    32    27   ar
    39    21    22    1
@<TRIPOS>MOLECULE
*****
 36 39 0 0 0
SMALL
GASTEIGER

@<TRIPOS>ATOM
      1 N         142.5362  142.8504  163.8974 N.am    1  UNL1       -0.2798
      2 C         143.6411  142.5197  162.9382 C.3     1  UNL1        0.0956
      3 C         143.5014  143.4159  161.7435 C.3     1  UNL1        0.0504
      4 C         142.3101  144.3004  161.9642 C.3     1  UNL1        0.1495
      5 C         141.7137  143.9508  163.2954 C.2     1  UNL1        0.2435
      6 O         140.5066  144.5897  163.9157 O.2     1  UNL1       -0.2731
      7 C         141.2052  141.1766  165.3728 C.3     1  UNL1        0.0196
      8 C         140.9650  140.5217  166.7007 C.3     1  UNL1        0.0176
      9 C         141.8157  140.8859  167.8813 C.3     1  UNL1        0.0576
     10 C         142.9066  141.9049  167.7338 C.3     1  UNL1        0.0177
     11 C         143.1467  142.5597  166.4059 C.3     1  UNL1        0.0212
     12 C         142.2961  142.1956  165.2253 C.3     1  UNL1        0.0754
     13 N         141.5756  140.2311  169.2093 N.3     1  UNL1       -0.2741
     14 C         142.3902  139.0391  169.6161 C.3     1  UNL1        0.0896
     15 C         140.5209  140.7685  170.1306 C.3     1  UNL1        0.0576
     16 C         140.9090  141.6423  171.2864 C.3     1  UNL1        0.0173
     17 C         139.0781  140.4321  169.8961 C.3     1  UNL1        0.0173
     18 C         140.3545  140.8124  164.1922 C.3     1  UNL1        0.0017
     19 C         141.0905  140.0817  161.8101 C.3     1  UNL1        0.0000
     20 C         140.8069  139.7423  163.2434 C.3     1  UNL1        0.0001
     21 N         141.8043  145.3500  161.0196 N.pl3   1  UNL1       -0.3122
     22 H         141.7262  146.2848  161.3184 H       1  UNL1        0.1486
     23 C         141.4172  144.9754  159.6196 C.ar    1  UNL1        0.1319
     24 N         142.1074  145.6180  158.4532 N.ar    1  UNL1       -0.2092
     25 C         141.7204  145.2433  157.0533 C.ar    1  UNL1        0.2000
     26 N         140.6431  144.2261  156.8198 N.ar    1  UNL1       -0.2239
     27 C         139.9528  143.5834  157.9862 C.ar    1  UNL1        0.0857
     28 C         138.8755  142.5662  157.7527 C.ar    1  UNL1        0.0192
     29 C         138.1852  141.9235  158.9191 C.ar    1  UNL1        0.0054
     30 C         138.5723  142.2982  160.3191 C.ar    1  UNL1        0.0716
     31 C         139.6496  143.3155  160.5526 C.ar    1  UNL1        0.0081
     32 C         140.3399  143.9581  159.3861 C.ar    1  UNL1        0.0491
     33 C         137.8820  141.6556  161.4855 C.3     1  UNL1        0.4186
     34 F         137.1917  141.0129  162.6519 F       1  UNL1       -0.1659
     35 F         138.2558  142.8230  162.3499 F       1  UNL1       -0.1659
     36 F         137.5083  140.4881  160.6211 F       1  UNL1       -0.1659
@<TRIPOS>BOND
     1    19    20    1
     2    20    18    1
     3     7    18    1
     4     7     8    1
     5     8     9    1
     6     9    13    1
     7    13    14    1
     8    13    15    1
     9    15    16    1
    10    15    17    1
    11     9    10    1
    12    10    11    1
    13    11    12    1
    14    12     1    1
    15     1     2    1
    16     2     3    1
    17     3     4    1
    18     4    21    1
    19    21    23    1
    20    23    24   ar
    21    24    25   ar
    22    25    26   ar
    23    26    27   ar
    24    27    28   ar
    25    28    29   ar
    26    29    30   ar
    27    30    33    1
    28    33    34    1
    29    33    35    1
    30    33    36    1
    31    30    31   ar
    32    31    32   ar
    33     4     5    1
    34     5     6    2
    35    12     7    1
    36     5     1   am
    37    32    23   ar
    38    32    27   ar
    39    21    22    1
@<TRIPOS>MOLECULE
*****
 36 39 0 0 0
SMALL
GASTEIGER

@<TRIPOS>ATOM
      1 N         140.1069  138.5625  162.9288 N.am    1  UNL1       -0.2798
      2 C         139.7440  137.4341  163.8480 C.3     1  UNL1        0.0956
      3 C         139.2574  138.0252  165.1379 C.3     1  UNL1        0.0504
      4 C         139.3195  139.5189  165.0158 C.3     1  UNL1        0.1495
      5 C         139.8446  139.8510  163.6505 C.2     1  UNL1        0.2435
      6 O         140.0680  141.2295  163.1031 O.2     1  UNL1       -0.2731
      7 C         142.1065  138.2150  161.3067 C.3     1  UNL1        0.0196
      8 C         142.6384  138.0788  159.9108 C.3     1  UNL1        0.0176
      9 C         141.7025  138.1541  158.7410 C.3     1  UNL1        0.0576
     10 C         140.2348  138.3655  158.9671 C.3     1  UNL1        0.0177
     11 C         139.7029  138.5016  160.3630 C.3     1  UNL1        0.0212
     12 C         140.6388  138.4264  161.5328 C.3     1  UNL1        0.0754
     13 N         142.2342  138.0179  157.3450 N.3     1  UNL1       -0.2741
     14 C         142.9358  139.1727  156.6937 C.3     1  UNL1        0.0896
     15 C         142.0643  136.7269  156.6004 C.3     1  UNL1        0.0576
     16 C         140.8798  136.5299  155.7015 C.3     1  UNL1        0.0173
     17 C         143.0789  135.6330  156.7547 C.3     1  UNL1        0.0173
     18 C         143.0424  138.1397  162.4765 C.3     1  UNL1        0.0017
     19 C         143.9155  139.3971  164.5758 C.3     1  UNL1        0.0000
     20 C         143.5356  139.3993  163.1247 C.3     1  UNL1        0.0001
     21 N         138.9258  140.5071  166.0734 N.pl3   1  UNL1       -0.3122
     22 H         138.1950  141.1447  165.9038 H       1  UNL1        0.1486
     23 C         139.6454  140.5239  167.3895 C.ar    1  UNL1        0.1319
     24 N         139.0221  139.8820  168.5934 N.ar    1  UNL1       -0.2092
     25 C         139.7417  139.8988  169.9093 C.ar    1  UNL1        0.2000
     26 N         141.0847  140.5574  170.0214 N.ar    1  UNL1       -0.2239
     27 C         141.7081  141.1992  168.8175 C.ar    1  UNL1        0.0857
     28 C         143.0511  141.8578  168.9295 C.ar    1  UNL1        0.0192
     29 C         143.6745  142.4997  167.7256 C.ar    1  UNL1        0.0054
     30 C         142.9548  142.4829  166.4096 C.ar    1  UNL1        0.0716
     31 C         141.6118  141.8243  166.2975 C.ar    1  UNL1        0.0081
     32 C         140.9884  141.1825  167.5015 C.ar    1  UNL1        0.0491
     33 C         143.5782  143.1248  165.2057 C.3     1  UNL1        0.4186
     34 F         144.2015  143.7666  164.0017 F       1  UNL1       -0.1659
     35 F         144.6980  143.6400  166.0602 F       1  UNL1       -0.1659
     36 F         142.4583  142.6095  164.3511 F       1  UNL1       -0.1659
@<TRIPOS>BOND
     1    19    20    1
     2    20    18    1
     3     7    18    1
     4     7     8    1
     5     8     9    1
     6     9    13    1
     7    13    14    1
     8    13    15    1
     9    15    16    1
    10    15    17    1
    11     9    10    1
    12    10    11    1
    13    11    12    1
    14    12     1    1
    15     1     2    1
    16     2     3    1
    17     3     4    1
    18     4    21    1
    19    21    23    1
    20    23    24   ar
    21    24    25   ar
    22    25    26   ar
    23    26    27   ar
    24    27    28   ar
    25    28    29   ar
    26    29    30   ar
    27    30    33    1
    28    33    34    1
    29    33    35    1
    30    33    36    1
    31    30    31   ar
    32    31    32   ar
    33     4     5    1
    34     5     6    2
    35    12     7    1
    36     5     1   am
    37    32    23   ar
    38    32    27   ar
    39    21    22    1
@<TRIPOS>MOLECULE
*****
 36 39 0 0 0
SMALL
GASTEIGER

@<TRIPOS>ATOM
      1 N         143.7894  141.6092  164.0570 N.am    1  UNL1       -0.2798
      2 C         145.2208  141.7591  163.6346 C.3     1  UNL1        0.0956
      3 C         145.2377  142.1759  162.1938 C.3     1  UNL1        0.0504
      4 C         143.8166  142.2835  161.7257 C.3     1  UNL1        0.1495
      5 C         142.9216  141.9333  162.8772 C.2     1  UNL1        0.2435
      6 O         141.4219  141.9110  162.8533 O.2     1  UNL1       -0.2731
      7 C         143.0565  139.7600  165.7284 C.3     1  UNL1        0.0196
      8 C         142.5770  139.3567  167.0913 C.3     1  UNL1        0.0176
      9 C         142.3509  140.3993  168.1457 C.3     1  UNL1        0.0576
     10 C         142.6043  141.8453  167.8372 C.3     1  UNL1        0.0177
     11 C         143.0838  142.2485  166.4743 C.3     1  UNL1        0.0212
     12 C         143.3099  141.2059  165.4199 C.3     1  UNL1        0.0754
     13 N         141.8715  139.9962  169.5086 N.3     1  UNL1       -0.2741
     14 C         142.5166  138.8442  170.2204 C.3     1  UNL1        0.0896
     15 C         140.7467  140.7451  170.1598 C.3     1  UNL1        0.0576
     16 C         139.3302  140.4845  169.7406 C.3     1  UNL1        0.0173
     17 C         141.0384  141.7547  171.2301 C.3     1  UNL1        0.0173
     18 C         143.2826  138.7173  164.6740 C.3     1  UNL1        0.0017
     19 C         141.2152  137.1733  164.3713 C.3     1  UNL1        0.0000
     20 C         142.1340  138.2330  163.8396 C.3     1  UNL1        0.0001
     21 N         143.3693  142.6730  160.3480 N.pl3   1  UNL1       -0.3122
     22 H         142.7964  143.4637  160.2215 H       1  UNL1        0.1486
     23 C         143.7947  141.8579  159.1628 C.ar    1  UNL1        0.1319
     24 N         144.9802  142.2819  158.3475 N.ar    1  UNL1       -0.2092
     25 C         145.4057  141.4667  157.1624 C.ar    1  UNL1        0.2000
     26 N         144.6455  140.2276  156.7926 N.ar    1  UNL1       -0.2239
     27 C         143.4600  139.8036  157.6079 C.ar    1  UNL1        0.0857
     28 C         142.6999  138.5645  157.2380 C.ar    1  UNL1        0.0192
     29 C         141.5144  138.1405  158.0533 C.ar    1  UNL1        0.0054
     30 C         141.0889  138.9556  159.2385 C.ar    1  UNL1        0.0716
     31 C         141.8491  140.1948  159.6083 C.ar    1  UNL1        0.0081
     32 C         143.0346  140.6187  158.7930 C.ar    1  UNL1        0.0491
     33 C         139.9034  138.5316  160.0538 C.3     1  UNL1        0.4186
     34 F         138.7178  138.1076  160.8691 F       1  UNL1       -0.1659
     35 F         140.8143  137.8136  161.0049 F       1  UNL1       -0.1659
     36 F         138.9925  139.2496  159.1026 F       1  UNL1       -0.1659
@<TRIPOS>BOND
     1    19    20    1
     2    20    18    1
     3     7    18    1
     4     7     8    1
     5     8     9    1
     6     9    13    1
     7    13    14    1
     8    13    15    1
     9    15    16    1
    10    15    17    1
    11     9    10    1
    12    10    11    1
    13    11    12    1
    14    12     1    1
    15     1     2    1
    16     2     3    1
    17     3     4    1
    18     4    21    1
    19    21    23    1
    20    23    24   ar
    21    24    25   ar
    22    25    26   ar
    23    26    27   ar
    24    27    28   ar
    25    28    29   ar
    26    29    30   ar
    27    30    33    1
    28    33    34    1
    29    33    35    1
    30    33    36    1
    31    30    31   ar
    32    31    32   ar
    33     4     5    1
    34     5     6    2
    35    12     7    1
    36     5     1   am
    37    32    23   ar
    38    32    27   ar
    39    21    22    1
