@<TRIPOS>MOLECULE
*****
 35 39 0 0 0
SMALL
GASTEIGER

@<TRIPOS>ATOM
      1 C         143.0426  139.0888  161.2110 C.2     1  UNL1        0.2667
      2 O         144.2597  139.6482  161.8862 O.2     1  UNL1       -0.2684
      3 N         141.7844  138.8665  161.9967 N.am    1  UNL1       -0.2973
      4 H         140.9857  138.4994  161.5535 H       1  UNL1        0.1499
      5 C         141.7432  139.2036  163.4579 C.3     1  UNL1        0.1201
      6 C         142.0850  138.1589  164.4785 C.3     1  UNL1        0.2250
      7 O         142.0438  138.4959  165.9395 O.3     1  UNL1       -0.4739
      8 C         141.6607  139.8777  166.3799 C.ar    1  UNL1        0.1358
      9 C         141.6195  140.2148  167.8410 C.ar    1  UNL1        0.0367
     10 C         141.2365  141.5966  168.2814 C.ar    1  UNL1        0.0044
     11 C         140.8946  142.6413  167.2607 C.ar    1  UNL1        0.0144
     12 C         140.9359  142.3042  165.7997 C.ar    1  UNL1        0.0468
     13 C         141.3189  140.9224  165.3593 C.ar    1  UNL1        0.0268
     14 C         141.3602  140.5853  163.8982 C.3     1  UNL1        0.0541
     15 N         140.5941  143.3489  164.7790 N.pl3   1  UNL1       -0.3048
     16 C         139.1724  143.5270  164.3352 C.3     1  UNL1        0.1081
     17 C         138.8306  144.5718  163.3145 C.3     1  UNL1        0.0938
     18 N         139.9105  145.4384  162.7377 N.3     1  UNL1       -0.2686
     19 C         139.5688  146.4832  161.7170 C.3     1  UNL1        0.0897
     20 C         141.3322  145.2603  163.1816 C.3     1  UNL1        0.0938
     21 C         141.6740  144.2156  164.2022 C.3     1  UNL1        0.1081
     22 N         142.9030  137.5406  157.6544 N.ar    1  UNL1       -0.1484
     23 N         143.3916  138.9255  157.3487 N.ar    1  UNL1       -0.1507
     24 C         143.5034  139.6740  158.6438 C.ar    1  UNL1        0.1046
     25 C         143.9553  141.0952  158.8046 C.3     1  UNL1        0.0558
     26 C         143.0839  138.7517  159.7499 C.ar    1  UNL1        0.1711
     27 N         142.7128  137.4332  159.1385 N.ar    1  UNL1       -0.1421
     28 C         141.8877  133.1938  153.6451 C.3     1  UNL1        0.0310
     29 C         142.1415  134.2805  154.6475 C.ar    1  UNL1       -0.0221
     30 C         143.4867  134.3991  155.3005 C.ar    1  UNL1       -0.0027
     31 C         143.7405  135.4858  156.3029 C.ar    1  UNL1        0.0203
     32 C         142.6492  136.4539  156.6521 C.ar    1  UNL1        0.0989
     33 C         141.3040  136.3353  155.9990 C.ar    1  UNL1       -0.0028
     34 C         140.2127  137.3033  156.3482 C.3     1  UNL1        0.0327
     35 C         141.0502  135.2486  154.9967 C.ar    1  UNL1       -0.0070
@<TRIPOS>BOND
     1    28    29    1
     2    29    30   ar
     3    30    31   ar
     4    31    32   ar
     5    32    22    1
     6    22    23   ar
     7    23    24   ar
     8    24    25    1
     9    24    26   ar
    10    26     1    1
    11     1     2    2
    12     1     3   am
    13     5     3    1
    14     5     6    1
    15     6     7    1
    16     7     8    1
    17     8     9   ar
    18     9    10   ar
    19    10    11   ar
    20    11    12   ar
    21    12    15    1
    22    15    16    1
    23    16    17    1
    24    17    18    1
    25    18    19    1
    26    18    20    1
    27    20    21    1
    28    12    13   ar
    29    13    14    1
    30    26    27   ar
    31    32    33   ar
    32    33    34    1
    33    33    35   ar
    34    35    29   ar
    35    27    22   ar
    36    14     5    1
    37    13     8   ar
    38    21    15    1
    39     3     4    1
@<TRIPOS>MOLECULE
*****
 35 39 0 0 0
SMALL
GASTEIGER

@<TRIPOS>ATOM
      1 C         141.6288  140.1877  159.1601 C.2     1  UNL1        0.2667
      2 O         142.5253  141.2196  159.7777 O.2     1  UNL1       -0.2684
      3 N         140.1599  140.1918  159.4638 N.am    1  UNL1       -0.2973
      4 H         139.5715  139.5146  159.0585 H       1  UNL1        0.1499
      5 C         139.5874  141.2279  160.3853 C.3     1  UNL1        0.1201
      6 C         138.6166  142.2439  159.8607 C.3     1  UNL1        0.2250
      7 O         138.0442  143.2799  160.7821 O.3     1  UNL1       -0.4739
      8 C         138.4427  143.2999  162.2281 C.ar    1  UNL1        0.1358
      9 C         137.8702  144.3360  163.1495 C.ar    1  UNL1        0.0367
     10 C         138.2687  144.3561  164.5954 C.ar    1  UNL1        0.0044
     11 C         139.2397  143.3400  165.1200 C.ar    1  UNL1        0.0144
     12 C         139.8120  142.3040  164.1986 C.ar    1  UNL1        0.0468
     13 C         139.4136  142.2840  162.7526 C.ar    1  UNL1        0.0268
     14 C         139.9859  141.2480  161.8312 C.3     1  UNL1        0.0541
     15 N         140.7829  141.2881  164.7231 N.pl3   1  UNL1       -0.3048
     16 C         140.2845  139.9705  165.2383 C.3     1  UNL1        0.1081
     17 C         141.2555  138.9545  165.7629 C.3     1  UNL1        0.0938
     18 N         142.7248  139.2562  165.7723 N.3     1  UNL1       -0.2686
     19 C         143.6958  138.2402  166.2968 C.3     1  UNL1        0.0897
     20 C         143.2232  140.5738  165.2571 C.3     1  UNL1        0.0938
     21 C         142.2523  141.5898  164.7325 C.3     1  UNL1        0.1081
     22 N         142.6324  137.0392  157.1241 N.ar    1  UNL1       -0.1484
     23 N         143.5316  138.0754  156.5175 N.ar    1  UNL1       -0.1507
     24 C         143.2651  139.3809  157.2064 C.ar    1  UNL1        0.1046
     25 C         143.9433  140.6865  156.9143 C.3     1  UNL1        0.0558
     26 C         142.2012  139.1516  158.2386 C.ar    1  UNL1        0.1711
     27 N         141.8101  137.7044  158.1878 N.ar    1  UNL1       -0.1421
     28 C         142.3707  131.2503  155.5685 C.3     1  UNL1        0.0310
     29 C         142.4361  132.6976  155.9574 C.ar    1  UNL1       -0.0221
     30 C         143.3920  133.1453  157.0231 C.ar    1  UNL1       -0.0027
     31 C         143.4574  134.5925  157.4120 C.ar    1  UNL1        0.0203
     32 C         142.5670  135.5920  156.7352 C.ar    1  UNL1        0.0989
     33 C         141.6111  135.1443  155.6694 C.ar    1  UNL1       -0.0028
     34 C         140.7207  136.1438  154.9926 C.3     1  UNL1        0.0327
     35 C         141.5457  133.6971  155.2805 C.ar    1  UNL1       -0.0070
@<TRIPOS>BOND
     1    28    29    1
     2    29    30   ar
     3    30    31   ar
     4    31    32   ar
     5    32    22    1
     6    22    23   ar
     7    23    24   ar
     8    24    25    1
     9    24    26   ar
    10    26     1    1
    11     1     2    2
    12     1     3   am
    13     5     3    1
    14     5     6    1
    15     6     7    1
    16     7     8    1
    17     8     9   ar
    18     9    10   ar
    19    10    11   ar
    20    11    12   ar
    21    12    15    1
    22    15    16    1
    23    16    17    1
    24    17    18    1
    25    18    19    1
    26    18    20    1
    27    20    21    1
    28    12    13   ar
    29    13    14    1
    30    26    27   ar
    31    32    33   ar
    32    33    34    1
    33    33    35   ar
    34    35    29   ar
    35    27    22   ar
    36    14     5    1
    37    13     8   ar
    38    21    15    1
    39     3     4    1
@<TRIPOS>MOLECULE
*****
 35 39 0 0 0
SMALL
GASTEIGER

@<TRIPOS>ATOM
      1 C         140.3348  144.3051  160.8205 C.2     1  UNL1        0.2667
      2 O         141.7356  144.4270  161.3431 O.2     1  UNL1       -0.2684
      3 N         139.2143  143.9531  161.7535 N.am    1  UNL1       -0.2973
      4 H         138.2949  143.8731  161.4105 H       1  UNL1        0.1499
      5 C         139.4945  143.7231  163.2091 C.3     1  UNL1        0.1201
      6 C         138.8698  144.6125  164.2428 C.3     1  UNL1        0.2250
      7 O         139.1500  144.3824  165.6983 O.3     1  UNL1       -0.4739
      8 C         140.0549  143.2629  166.1201 C.ar    1  UNL1        0.1358
      9 C         140.3351  143.0329  167.5757 C.ar    1  UNL1        0.0367
     10 C         141.2400  141.9134  167.9974 C.ar    1  UNL1        0.0044
     11 C         141.8647  141.0240  166.9636 C.ar    1  UNL1        0.0144
     12 C         141.5845  141.2540  165.5081 C.ar    1  UNL1        0.0468
     13 C         140.6796  142.3735  165.0864 C.ar    1  UNL1        0.0268
     14 C         140.3994  142.6036  163.6309 C.3     1  UNL1        0.0541
     15 N         142.2092  140.3646  164.4744 N.pl3   1  UNL1       -0.3048
     16 C         141.5222  139.0965  164.0621 C.3     1  UNL1        0.1081
     17 C         142.1470  138.2071  163.0283 C.3     1  UNL1        0.0938
     18 N         143.4586  138.5857  162.4069 N.3     1  UNL1       -0.2686
     19 C         144.0834  137.6963  161.3731 C.3     1  UNL1        0.0897
     20 C         144.1456  139.8538  162.8193 C.3     1  UNL1        0.0938
     21 C         143.5209  140.7432  163.8530 C.3     1  UNL1        0.1081
     22 N         139.8119  145.6110  157.2029 N.ar    1  UNL1       -0.1484
     23 N         139.4351  144.1674  157.0473 N.ar    1  UNL1       -0.1507
     24 C         139.5851  143.5025  158.3835 C.ar    1  UNL1        0.1046
     25 C         139.3133  142.0586  158.6853 C.3     1  UNL1        0.0558
     26 C         140.0546  144.5351  159.3649 C.ar    1  UNL1        0.1711
     27 N         140.1949  145.8382  158.6354 N.ar    1  UNL1       -0.1421
     28 C         139.7913  149.7493  152.8587 C.3     1  UNL1        0.0310
     29 C         139.7965  148.7147  153.9447 C.ar    1  UNL1       -0.0221
     30 C         138.9681  148.9184  155.1785 C.ar    1  UNL1       -0.0027
     31 C         138.9732  147.8839  156.2646 C.ar    1  UNL1        0.0203
     32 C         139.8068  146.6455  156.1168 C.ar    1  UNL1        0.0989
     33 C         140.6352  146.4418  154.8831 C.ar    1  UNL1       -0.0028
     34 C         141.4688  145.2035  154.7354 C.3     1  UNL1        0.0327
     35 C         140.6301  147.4764  153.7970 C.ar    1  UNL1       -0.0070
@<TRIPOS>BOND
     1    28    29    1
     2    29    30   ar
     3    30    31   ar
     4    31    32   ar
     5    32    22    1
     6    22    23   ar
     7    23    24   ar
     8    24    25    1
     9    24    26   ar
    10    26     1    1
    11     1     2    2
    12     1     3   am
    13     5     3    1
    14     5     6    1
    15     6     7    1
    16     7     8    1
    17     8     9   ar
    18     9    10   ar
    19    10    11   ar
    20    11    12   ar
    21    12    15    1
    22    15    16    1
    23    16    17    1
    24    17    18    1
    25    18    19    1
    26    18    20    1
    27    20    21    1
    28    12    13   ar
    29    13    14    1
    30    26    27   ar
    31    32    33   ar
    32    33    34    1
    33    33    35   ar
    34    35    29   ar
    35    27    22   ar
    36    14     5    1
    37    13     8   ar
    38    21    15    1
    39     3     4    1
@<TRIPOS>MOLECULE
*****
 35 39 0 0 0
SMALL
GASTEIGER

@<TRIPOS>ATOM
      1 C         142.0405  140.0181  157.8710 C.2     1  UNL1        0.2667
      2 O         140.6338  140.4125  157.5310 O.2     1  UNL1       -0.2684
      3 N         142.8397  140.8456  158.8335 N.am    1  UNL1       -0.2973
      4 H         143.7629  140.5867  159.0566 H       1  UNL1        0.1499
      5 C         142.2321  142.0678  159.4560 C.3     1  UNL1        0.1201
      6 C         142.4612  143.4160  158.8399 C.3     1  UNL1        0.2250
      7 O         141.8538  144.6380  159.4624 O.3     1  UNL1       -0.4739
      8 C         141.0172  144.5118  160.7010 C.ar    1  UNL1        0.1358
      9 C         140.4097  145.7339  161.3236 C.ar    1  UNL1        0.0367
     10 C         139.5731  145.6076  162.5622 C.ar    1  UNL1        0.0044
     11 C         139.3440  144.2592  163.1783 C.ar    1  UNL1        0.0144
     12 C         139.9515  143.0372  162.5557 C.ar    1  UNL1        0.0468
     13 C         140.7881  143.1635  161.3171 C.ar    1  UNL1        0.0268
     14 C         141.3956  141.9415  160.6946 C.3     1  UNL1        0.0541
     15 N         139.7224  141.6890  163.1718 N.pl3   1  UNL1       -0.3048
     16 C         138.5972  140.8239  162.6864 C.3     1  UNL1        0.1081
     17 C         138.3681  139.4756  163.3026 C.3     1  UNL1        0.0938
     18 N         139.2642  138.9923  164.4041 N.3     1  UNL1       -0.2686
     19 C         139.0351  137.6440  165.0202 C.3     1  UNL1        0.0897
     20 C         140.3894  139.8574  164.8895 C.3     1  UNL1        0.0938
     21 C         140.6185  141.2056  164.2734 C.3     1  UNL1        0.1081
     22 N         143.0716  136.4867  156.6333 N.ar    1  UNL1       -0.1484
     23 N         144.0939  137.3441  155.9478 N.ar    1  UNL1       -0.1507
     24 C         143.8320  138.7713  156.3279 C.ar    1  UNL1        0.1046
     25 C         144.6165  139.9643  155.8683 C.3     1  UNL1        0.0558
     26 C         142.6480  138.7960  157.2485 C.ar    1  UNL1        0.1711
     27 N         142.1780  137.3841  157.4373 N.ar    1  UNL1       -0.1421
     28 C         142.6340  130.5163  156.2308 C.3     1  UNL1        0.0310
     29 C         142.7434  132.0089  156.3314 C.ar    1  UNL1       -0.0221
     30 C         143.7565  132.6264  157.2492 C.ar    1  UNL1       -0.0027
     31 C         143.8659  134.1190  157.3498 C.ar    1  UNL1        0.0203
     32 C         142.9622  134.9941  156.5327 C.ar    1  UNL1        0.0989
     33 C         141.9491  134.3765  155.6149 C.ar    1  UNL1       -0.0028
     34 C         141.0455  135.2516  154.7978 C.3     1  UNL1        0.0327
     35 C         141.8397  132.8839  155.5143 C.ar    1  UNL1       -0.0070
@<TRIPOS>BOND
     1    28    29    1
     2    29    30   ar
     3    30    31   ar
     4    31    32   ar
     5    32    22    1
     6    22    23   ar
     7    23    24   ar
     8    24    25    1
     9    24    26   ar
    10    26     1    1
    11     1     2    2
    12     1     3   am
    13     5     3    1
    14     5     6    1
    15     6     7    1
    16     7     8    1
    17     8     9   ar
    18     9    10   ar
    19    10    11   ar
    20    11    12   ar
    21    12    15    1
    22    15    16    1
    23    16    17    1
    24    17    18    1
    25    18    19    1
    26    18    20    1
    27    20    21    1
    28    12    13   ar
    29    13    14    1
    30    26    27   ar
    31    32    33   ar
    32    33    34    1
    33    33    35   ar
    34    35    29   ar
    35    27    22   ar
    36    14     5    1
    37    13     8   ar
    38    21    15    1
    39     3     4    1
@<TRIPOS>MOLECULE
*****
 35 39 0 0 0
SMALL
GASTEIGER

@<TRIPOS>ATOM
      1 C         142.6130  139.0676  158.8864 C.2     1  UNL1        0.2667
      2 O         143.8670  138.7774  159.6567 O.2     1  UNL1       -0.2684
      3 N         141.9080  140.3791  159.0678 N.am    1  UNL1       -0.2973
      4 H         141.0849  140.5695  158.5622 H       1  UNL1        0.1499
      5 C         142.4569  141.4005  160.0194 C.3     1  UNL1        0.1201
      6 C         143.4097  142.4490  159.5266 C.3     1  UNL1        0.2250
      7 O         143.9586  143.4703  160.4782 O.3     1  UNL1       -0.4739
      8 C         143.5548  143.4431  161.9226 C.ar    1  UNL1        0.1358
      9 C         144.1038  144.4644  162.8742 C.ar    1  UNL1        0.0367
     10 C         143.7000  144.4372  164.3186 C.ar    1  UNL1        0.0044
     11 C         142.7472  143.3886  164.8113 C.ar    1  UNL1        0.0144
     12 C         142.1983  142.3673  163.8597 C.ar    1  UNL1        0.0468
     13 C         142.6021  142.3945  162.4154 C.ar    1  UNL1        0.0268
     14 C         142.0531  141.3732  161.4638 C.3     1  UNL1        0.0541
     15 N         141.2455  141.3188  164.3525 N.pl3   1  UNL1       -0.3048
     16 C         141.7718  140.0283  164.9071 C.3     1  UNL1        0.1081
     17 C         140.8190  138.9797  165.3999 C.3     1  UNL1        0.0938
     18 N         139.3400  139.2217  165.3381 N.3     1  UNL1       -0.2686
     19 C         138.3872  138.1732  165.8308 C.3     1  UNL1        0.0897
     20 C         138.8137  140.5122  164.7835 C.3     1  UNL1        0.0938
     21 C         139.7664  141.5608  164.2907 C.3     1  UNL1        0.1081
     22 N         141.8895  136.1388  156.4442 N.ar    1  UNL1       -0.1484
     23 N         140.5491  136.8102  156.4968 N.ar    1  UNL1       -0.1507
     24 C         140.6570  137.9890  157.4181 C.ar    1  UNL1        0.1046
     25 C         139.5520  138.9432  157.7622 C.3     1  UNL1        0.0558
     26 C         142.0640  138.0462  157.9348 C.ar    1  UNL1        0.1711
     27 N         142.8258  136.9028  157.3330 N.ar    1  UNL1       -0.1421
     28 C         143.2645  131.2552  153.2412 C.3     1  UNL1        0.0310
     29 C         142.9207  132.4761  154.0419 C.ar    1  UNL1       -0.0221
     30 C         142.1000  133.5703  153.4262 C.ar    1  UNL1       -0.0027
     31 C         141.7563  134.7912  154.2269 C.ar    1  UNL1        0.0203
     32 C         142.2333  134.9179  155.6434 C.ar    1  UNL1        0.0989
     33 C         143.0540  133.8237  156.2592 C.ar    1  UNL1       -0.0028
     34 C         143.5309  133.9504  157.6757 C.3     1  UNL1        0.0327
     35 C         143.3977  132.6028  155.4584 C.ar    1  UNL1       -0.0070
@<TRIPOS>BOND
     1    28    29    1
     2    29    30   ar
     3    30    31   ar
     4    31    32   ar
     5    32    22    1
     6    22    23   ar
     7    23    24   ar
     8    24    25    1
     9    24    26   ar
    10    26     1    1
    11     1     2    2
    12     1     3   am
    13     5     3    1
    14     5     6    1
    15     6     7    1
    16     7     8    1
    17     8     9   ar
    18     9    10   ar
    19    10    11   ar
    20    11    12   ar
    21    12    15    1
    22    15    16    1
    23    16    17    1
    24    17    18    1
    25    18    19    1
    26    18    20    1
    27    20    21    1
    28    12    13   ar
    29    13    14    1
    30    26    27   ar
    31    32    33   ar
    32    33    34    1
    33    33    35   ar
    34    35    29   ar
    35    27    22   ar
    36    14     5    1
    37    13     8   ar
    38    21    15    1
    39     3     4    1
@<TRIPOS>MOLECULE
*****
 35 39 0 0 0
SMALL
GASTEIGER

@<TRIPOS>ATOM
      1 C         139.2161  142.4119  161.5510 C.2     1  UNL1        0.2667
      2 O         137.9577  143.2144  161.4012 O.2     1  UNL1       -0.2684
      3 N         140.3469  142.6028  160.5843 N.am    1  UNL1       -0.2973
      4 H         141.1729  142.0761  160.6826 H       1  UNL1        0.1499
      5 C         140.2195  143.5962  159.4676 C.3     1  UNL1        0.1201
      6 C         140.5109  145.0463  159.7168 C.3     1  UNL1        0.2250
      7 O         140.3834  146.0396  158.6002 O.3     1  UNL1       -0.4739
      8 C         139.9645  145.5828  157.2342 C.ar    1  UNL1        0.1358
      9 C         139.8370  146.5763  156.1175 C.ar    1  UNL1        0.0367
     10 C         139.4180  146.1195  154.7516 C.ar    1  UNL1        0.0044
     11 C         139.1266  144.6693  154.5023 C.ar    1  UNL1        0.0144
     12 C         139.2541  143.6760  155.6190 C.ar    1  UNL1        0.0468
     13 C         139.6730  144.1327  156.9849 C.ar    1  UNL1        0.0268
     14 C         139.8005  143.1394  158.1016 C.3     1  UNL1        0.0541
     15 N         138.9627  142.2258  155.3697 N.pl3   1  UNL1       -0.3048
     16 C         137.5672  141.7017  155.5370 C.3     1  UNL1        0.1081
     17 C         137.2758  140.2515  155.2877 C.3     1  UNL1        0.0938
     18 N         138.3798  139.3255  154.8711 N.3     1  UNL1       -0.2686
     19 C         138.0884  137.8753  154.6218 C.3     1  UNL1        0.0897
     20 C         139.7753  139.8496  154.7038 C.3     1  UNL1        0.0938
     21 C         140.0667  141.2997  154.9531 C.3     1  UNL1        0.1081
     22 N         139.9906  140.3624  164.7550 N.ar    1  UNL1       -0.1484
     23 N         139.0889  139.4174  164.0173 N.ar    1  UNL1       -0.1507
     24 C         138.6891  140.0702  162.7273 C.ar    1  UNL1        0.1046
     25 C         137.7921  139.4785  161.6807 C.3     1  UNL1        0.0558
     26 C         139.3436  141.4185  162.6677 C.ar    1  UNL1        0.1711
     27 N         140.1480  141.5992  163.9208 N.ar    1  UNL1       -0.1421
     28 C         142.5232  139.3694  170.1028 C.3     1  UNL1        0.0310
     29 C         141.8900  139.6177  168.7659 C.ar    1  UNL1       -0.0221
     30 C         140.4953  140.1639  168.6864 C.ar    1  UNL1       -0.0027
     31 C         139.8622  140.4122  167.3494 C.ar    1  UNL1        0.0203
     32 C         140.6238  140.1141  166.0919 C.ar    1  UNL1        0.0989
     33 C         142.0185  139.5678  166.1714 C.ar    1  UNL1       -0.0028
     34 C         142.7801  139.2698  164.9140 C.3     1  UNL1        0.0327
     35 C         142.6516  139.3196  167.5084 C.ar    1  UNL1       -0.0070
@<TRIPOS>BOND
     1    28    29    1
     2    29    30   ar
     3    30    31   ar
     4    31    32   ar
     5    32    22    1
     6    22    23   ar
     7    23    24   ar
     8    24    25    1
     9    24    26   ar
    10    26     1    1
    11     1     2    2
    12     1     3   am
    13     5     3    1
    14     5     6    1
    15     6     7    1
    16     7     8    1
    17     8     9   ar
    18     9    10   ar
    19    10    11   ar
    20    11    12   ar
    21    12    15    1
    22    15    16    1
    23    16    17    1
    24    17    18    1
    25    18    19    1
    26    18    20    1
    27    20    21    1
    28    12    13   ar
    29    13    14    1
    30    26    27   ar
    31    32    33   ar
    32    33    34    1
    33    33    35   ar
    34    35    29   ar
    35    27    22   ar
    36    14     5    1
    37    13     8   ar
    38    21    15    1
    39     3     4    1
@<TRIPOS>MOLECULE
*****
 35 39 0 0 0
SMALL
GASTEIGER

@<TRIPOS>ATOM
      1 C         143.1735  139.8799  161.4318 C.2     1  UNL1        0.2667
      2 O         144.5193  139.2219  161.3557 O.2     1  UNL1       -0.2684
      3 N         142.7629  140.8712  160.3836 N.am    1  UNL1       -0.2973
      4 H         141.8796  141.3031  160.4336 H       1  UNL1        0.1499
      5 C         143.6982  141.2046  159.2593 C.3     1  UNL1        0.1201
      6 C         144.6017  142.3973  159.3638 C.3     1  UNL1        0.2250
      7 O         145.5369  142.7306  158.2395 O.3     1  UNL1       -0.4739
      8 C         145.5687  141.8711  157.0105 C.ar    1  UNL1        0.1358
      9 C         146.5040  142.2045  155.8861 C.ar    1  UNL1        0.0367
     10 C         146.5357  141.3450  154.6572 C.ar    1  UNL1        0.0044
     11 C         145.6322  140.1522  154.5527 C.ar    1  UNL1        0.0144
     12 C         144.6970  139.8189  155.6770 C.ar    1  UNL1        0.0468
     13 C         144.6652  140.6784  156.9060 C.ar    1  UNL1        0.0268
     14 C         143.7300  140.3451  158.0303 C.3     1  UNL1        0.0541
     15 N         143.7935  138.6261  155.5725 N.pl3   1  UNL1       -0.3048
     16 C         142.3098  138.8165  155.4608 C.3     1  UNL1        0.1081
     17 C         141.4064  137.6236  155.3562 C.3     1  UNL1        0.0938
     18 N         141.9866  136.2404  155.3633 N.3     1  UNL1       -0.2686
     19 C         141.0831  135.0476  155.2587 C.3     1  UNL1        0.0897
     20 C         143.4703  136.0500  155.4749 C.3     1  UNL1        0.0938
     21 C         144.3737  137.2428  155.5795 C.3     1  UNL1        0.1081
     22 N         141.2365  139.4133  164.7629 N.ar    1  UNL1       -0.1484
     23 N         140.3616  138.6539  163.8100 N.ar    1  UNL1       -0.1507
     24 C         140.9807  138.7363  162.4462 C.ar    1  UNL1        0.1046
     25 C         140.4377  138.1171  161.1926 C.3     1  UNL1        0.0558
     26 C         142.2382  139.5465  162.5562 C.ar    1  UNL1        0.1711
     27 N         142.3964  139.9650  163.9879 N.ar    1  UNL1       -0.1421
     28 C         140.2670  140.1200  170.6417 C.3     1  UNL1        0.0310
     29 C         140.5093  139.9433  169.1720 C.ar    1  UNL1       -0.0221
     30 C         141.9048  139.7391  168.6612 C.ar    1  UNL1       -0.0027
     31 C         142.1472  139.5624  167.1916 C.ar    1  UNL1        0.0203
     32 C         140.9941  139.5900  166.2326 C.ar    1  UNL1        0.0989
     33 C         139.5986  139.7943  166.7433 C.ar    1  UNL1       -0.0028
     34 C         138.4455  139.8219  165.7844 C.3     1  UNL1        0.0327
     35 C         139.3562  139.9710  168.2130 C.ar    1  UNL1       -0.0070
@<TRIPOS>BOND
     1    28    29    1
     2    29    30   ar
     3    30    31   ar
     4    31    32   ar
     5    32    22    1
     6    22    23   ar
     7    23    24   ar
     8    24    25    1
     9    24    26   ar
    10    26     1    1
    11     1     2    2
    12     1     3   am
    13     5     3    1
    14     5     6    1
    15     6     7    1
    16     7     8    1
    17     8     9   ar
    18     9    10   ar
    19    10    11   ar
    20    11    12   ar
    21    12    15    1
    22    15    16    1
    23    16    17    1
    24    17    18    1
    25    18    19    1
    26    18    20    1
    27    20    21    1
    28    12    13   ar
    29    13    14    1
    30    26    27   ar
    31    32    33   ar
    32    33    34    1
    33    33    35   ar
    34    35    29   ar
    35    27    22   ar
    36    14     5    1
    37    13     8   ar
    38    21    15    1
    39     3     4    1
@<TRIPOS>MOLECULE
*****
 35 39 0 0 0
SMALL
GASTEIGER

@<TRIPOS>ATOM
      1 C         142.5907  142.0804  158.1946 C.2     1  UNL1        0.2667
      2 O         141.1741  141.7802  157.8034 O.2     1  UNL1       -0.2684
      3 N         142.8742  142.8706  159.4377 N.am    1  UNL1       -0.2973
      4 H         143.8040  143.0676  159.6944 H       1  UNL1        0.1499
      5 C         141.7410  143.3606  160.2897 C.3     1  UNL1        0.1201
      6 C         140.8257  144.4323  159.7764 C.3     1  UNL1        0.2250
      7 O         139.6926  144.9222  160.6284 O.3     1  UNL1       -0.4739
      8 C         139.4748  144.3404  161.9937 C.ar    1  UNL1        0.1358
      9 C         138.3416  144.8304  162.8457 C.ar    1  UNL1        0.0367
     10 C         138.1238  144.2486  164.2110 C.ar    1  UNL1        0.0044
     11 C         139.0392  143.1769  164.7243 C.ar    1  UNL1        0.0144
     12 C         140.1724  142.6869  163.8723 C.ar    1  UNL1        0.0468
     13 C         140.3901  143.2687  162.5070 C.ar    1  UNL1        0.0268
     14 C         141.5233  142.7788  161.6550 C.3     1  UNL1        0.0541
     15 N         141.0877  141.6152  164.3856 N.pl3   1  UNL1       -0.3048
     16 C         142.3276  141.9874  165.1433 C.3     1  UNL1        0.1081
     17 C         143.2430  140.9156  165.6566 C.3     1  UNL1        0.0938
     18 N         142.9184  139.4717  165.4123 N.3     1  UNL1       -0.2686
     19 C         143.8338  138.3999  165.9256 C.3     1  UNL1        0.0897
     20 C         141.6785  139.0995  164.6546 C.3     1  UNL1        0.0938
     21 C         140.7631  140.1712  164.1413 C.3     1  UNL1        0.1081
     22 N         145.7245  141.5385  155.9694 N.ar    1  UNL1       -0.1484
     23 N         145.2109  140.1346  156.0936 N.ar    1  UNL1       -0.1507
     24 C         143.9745  140.1667  156.9422 C.ar    1  UNL1        0.1046
     25 C         143.1358  138.9831  157.3236 C.3     1  UNL1        0.0558
     26 C         143.7239  141.5904  157.3426 C.ar    1  UNL1        0.1711
     27 N         144.8055  142.4383  156.7413 N.ar    1  UNL1       -0.1421
     28 C         150.5990  143.2536  152.9204 C.3     1  UNL1        0.0310
     29 C         149.3804  142.8248  153.6826 C.ar    1  UNL1       -0.0221
     30 C         149.5276  142.0381  154.9513 C.ar    1  UNL1       -0.0027
     31 C         148.3090  141.6093  155.7135 C.ar    1  UNL1        0.0203
     32 C         146.9432  141.9672  155.2071 C.ar    1  UNL1        0.0989
     33 C         146.7959  142.7539  153.9385 C.ar    1  UNL1       -0.0028
     34 C         145.4301  143.1118  153.4321 C.3     1  UNL1        0.0327
     35 C         148.0146  143.1827  153.1762 C.ar    1  UNL1       -0.0070
@<TRIPOS>BOND
     1    28    29    1
     2    29    30   ar
     3    30    31   ar
     4    31    32   ar
     5    32    22    1
     6    22    23   ar
     7    23    24   ar
     8    24    25    1
     9    24    26   ar
    10    26     1    1
    11     1     2    2
    12     1     3   am
    13     5     3    1
    14     5     6    1
    15     6     7    1
    16     7     8    1
    17     8     9   ar
    18     9    10   ar
    19    10    11   ar
    20    11    12   ar
    21    12    15    1
    22    15    16    1
    23    16    17    1
    24    17    18    1
    25    18    19    1
    26    18    20    1
    27    20    21    1
    28    12    13   ar
    29    13    14    1
    30    26    27   ar
    31    32    33   ar
    32    33    34    1
    33    33    35   ar
    34    35    29   ar
    35    27    22   ar
    36    14     5    1
    37    13     8   ar
    38    21    15    1
    39     3     4    1
@<TRIPOS>MOLECULE
*****
 35 39 0 0 0
SMALL
GASTEIGER

@<TRIPOS>ATOM
      1 C         140.1314  139.0158  161.8544 C.2     1  UNL1        0.2667
      2 O         139.6717  137.6215  161.5468 O.2     1  UNL1       -0.2684
      3 N         141.1004  139.7049  160.9400 N.am    1  UNL1       -0.2973
      4 H         141.4021  140.6201  161.1420 H       1  UNL1        0.1499
      5 C         141.6096  138.9998  159.7179 C.3     1  UNL1        0.1201
      6 C         142.6741  137.9509  159.8461 C.3     1  UNL1        0.2250
      7 O         143.1833  137.2458  158.6240 O.3     1  UNL1       -0.4739
      8 C         142.6280  137.5898  157.2737 C.ar    1  UNL1        0.1358
      9 C         143.1373  136.8847  156.0515 C.ar    1  UNL1        0.0367
     10 C         142.5820  137.2286  154.7012 C.ar    1  UNL1        0.0044
     11 C         141.5175  138.2776  154.5730 C.ar    1  UNL1        0.0144
     12 C         141.0083  138.9827  155.7951 C.ar    1  UNL1        0.0468
     13 C         141.5636  138.6387  157.1455 C.ar    1  UNL1        0.0268
     14 C         141.0544  139.3438  158.3676 C.3     1  UNL1        0.0541
     15 N         139.9438  140.0316  155.6669 N.pl3   1  UNL1       -0.3048
     16 C         138.4964  139.6399  155.7051 C.3     1  UNL1        0.1081
     17 C         137.4318  140.6890  155.5768 C.3     1  UNL1        0.0938
     18 N         137.8148  142.1297  155.4104 N.3     1  UNL1       -0.2686
     19 C         136.7503  143.1787  155.2822 C.3     1  UNL1        0.0897
     20 C         139.2623  142.5214  155.3723 C.3     1  UNL1        0.0938
     21 C         140.3267  141.4724  155.5005 C.3     1  UNL1        0.1081
     22 N         139.4497  140.5915  165.3356 N.ar    1  UNL1       -0.1484
     23 N         138.2275  141.0202  164.5789 N.ar    1  UNL1       -0.1507
     24 C         138.3341  140.4822  163.1828 C.ar    1  UNL1        0.1046
     25 C         137.3292  140.6720  162.0855 C.3     1  UNL1        0.0558
     26 C         139.6222  139.7209  163.0766 C.ar    1  UNL1        0.1711
     27 N         140.3117  139.7884  164.4070 N.ar    1  UNL1       -0.1421
     28 C         140.6753  141.8650  171.0692 C.3     1  UNL1        0.0310
     29 C         140.3689  141.5467  169.6358 C.ar    1  UNL1       -0.0221
     30 C         139.7147  140.2446  169.2801 C.ar    1  UNL1       -0.0027
     31 C         139.4083  139.9262  167.8467 C.ar    1  UNL1        0.0203
     32 C         139.7561  140.9099  166.7690 C.ar    1  UNL1        0.0989
     33 C         140.4103  142.2120  167.1247 C.ar    1  UNL1       -0.0028
     34 C         140.7581  143.1957  166.0470 C.3     1  UNL1        0.0327
     35 C         140.7167  142.5304  168.5581 C.ar    1  UNL1       -0.0070
@<TRIPOS>BOND
     1    28    29    1
     2    29    30   ar
     3    30    31   ar
     4    31    32   ar
     5    32    22    1
     6    22    23   ar
     7    23    24   ar
     8    24    25    1
     9    24    26   ar
    10    26     1    1
    11     1     2    2
    12     1     3   am
    13     5     3    1
    14     5     6    1
    15     6     7    1
    16     7     8    1
    17     8     9   ar
    18     9    10   ar
    19    10    11   ar
    20    11    12   ar
    21    12    15    1
    22    15    16    1
    23    16    17    1
    24    17    18    1
    25    18    19    1
    26    18    20    1
    27    20    21    1
    28    12    13   ar
    29    13    14    1
    30    26    27   ar
    31    32    33   ar
    32    33    34    1
    33    33    35   ar
    34    35    29   ar
    35    27    22   ar
    36    14     5    1
    37    13     8   ar
    38    21    15    1
    39     3     4    1
