@<TRIPOS>MOLECULE
*****
 29 32 0 0 0
SMALL
GASTEIGER

@<TRIPOS>ATOM
      1 C         142.1902  142.0420  169.4838 C.ar    1  UNL1        0.1096
      2 C         141.1783  141.3343  170.3355 C.ar    1  UNL1        0.0153
      3 C         140.1628  140.4318  169.6999 C.ar    1  UNL1        0.0709
      4 C         140.1590  140.2370  168.2125 C.ar    1  UNL1        0.0831
      5 N         141.1709  140.9447  167.3609 N.ar    1  UNL1       -0.2900
      6 C         142.1865  141.8472  167.9965 C.ar    1  UNL1        0.2655
      7 O         143.1984  142.5550  167.1449 O.2     1  UNL1       -0.2668
      8 C         145.6849  143.5609  170.5931 C.3     1  UNL1        0.1109
      9 N         144.6693  142.6584  169.9574 N.am    1  UNL1       -0.2990
     10 C         143.2058  142.9445  170.1195 C.2     1  UNL1        0.2505
     11 O         142.7579  144.1332  170.9173 O.2     1  UNL1       -0.2700
     12 H         144.9633  141.8782  169.4338 H       1  UNL1        0.1498
     13 C         139.1510  139.7241  170.5515 C.2     1  UNL1        0.2473
     14 O         139.5828  139.0312  171.8098 O.2     1  UNL1       -0.2701
     15 N         137.7072  139.7092  170.1448 N.am    1  UNL1       -0.3024
     16 H         137.4238  140.1639  169.3189 H       1  UNL1        0.1497
     17 C         136.6953  139.0014  170.9964 C.3     1  UNL1        0.0720
     18 C         135.4568  139.0364  171.8419 C.3     1  UNL1        0.0213
     19 C         136.1812  137.7407  171.6260 C.3     1  UNL1        0.0213
     20 C         141.1671  140.7499  165.8736 C.3     1  UNL1        0.1322
     21 C         139.9228  141.0287  165.0838 C.2     1  UNL1       -0.0123
     22 C         139.2598  139.9250  164.3144 C.2     1  UNL1       -0.0059
     23 C         138.0155  140.2037  163.5246 C.2     1  UNL1        0.0007
     24 C         137.4340  141.5864  163.5042 C.2     1  UNL1        0.0153
     25 C         138.0970  142.6901  164.2736 C.2     1  UNL1        0.0666
     26 N         137.7573  144.1415  164.4409 N.2     1  UNL1       -0.2478
     27 C         138.7917  144.7598  165.3340 C.2     1  UNL1        0.0946
     28 C         139.7707  143.6904  165.7188 C.2     1  UNL1        0.0042
     29 C         139.3414  142.4113  165.0635 C.3     1  UNL1        0.0837
@<TRIPOS>BOND
     1     8     9    1
     2     9    10   am
     3    10    11    2
     4    10     1    1
     5     1     2   ar
     6     2     3   ar
     7     3    13    1
     8    13    14    2
     9    13    15   am
    10    15    17    1
    11    17    18    1
    12    18    19    1
    13     3     4   ar
    14     4     5   ar
    15     5    20    1
    16    20    21    1
    17    21    22    2
    18    22    23    1
    19    23    24    2
    20    24    25    1
    21    25    26    2
    22    26    27    1
    23    27    28    2
    24    28    29    1
    25     5     6   ar
    26     6     7    2
    27     6     1   ar
    28    19    17    1
    29    29    21    1
    30    29    25    1
    31     9    12    1
    32    15    16    1
@<TRIPOS>MOLECULE
*****
 29 32 0 0 0
SMALL
GASTEIGER

@<TRIPOS>ATOM
      1 C         141.9896  142.0901  169.4803 C.ar    1  UNL1        0.1096
      2 C         141.0401  141.3193  170.3490 C.ar    1  UNL1        0.0153
      3 C         139.9619  140.4841  169.7247 C.ar    1  UNL1        0.0709
      4 C         139.8330  140.4197  168.2316 C.ar    1  UNL1        0.0831
      5 N         140.7824  141.1904  167.3629 N.ar    1  UNL1       -0.2900
      6 C         141.8607  142.0257  167.9873 C.ar    1  UNL1        0.2655
      7 O         142.8100  142.7964  167.1186 O.2     1  UNL1       -0.2668
      8 C         145.5880  143.4117  170.5074 C.3     1  UNL1        0.1109
      9 N         144.5097  142.5765  169.8830 N.am    1  UNL1       -0.2990
     10 C         143.0678  142.9253  170.1047 C.2     1  UNL1        0.2505
     11 O         142.7041  144.1093  170.9508 O.2     1  UNL1       -0.2700
     12 H         144.7484  141.7994  169.3277 H       1  UNL1        0.1498
     13 C         139.0126  139.7134  170.5934 C.2     1  UNL1        0.2473
     14 O         139.5197  139.0063  171.8152 O.2     1  UNL1       -0.2701
     15 N         137.5561  139.6497  170.2403 N.am    1  UNL1       -0.3024
     16 H         137.2233  140.1138  169.4383 H       1  UNL1        0.1497
     17 C         136.6067  138.8789  171.1090 C.3     1  UNL1        0.0720
     18 C         135.3276  138.8055  171.8890 C.3     1  UNL1        0.0213
     19 C         136.2415  137.6173  171.8336 C.3     1  UNL1        0.0213
     20 C         140.6535  141.1260  165.8699 C.3     1  UNL1        0.1322
     21 C         139.7199  142.0587  165.1567 C.2     1  UNL1       -0.0123
     22 C         139.6297  143.4958  165.5768 C.2     1  UNL1       -0.0059
     23 C         138.6962  144.4284  164.8637 C.2     1  UNL1        0.0007
     24 C         137.8528  143.9240  163.7304 C.2     1  UNL1        0.0153
     25 C         137.9431  142.4869  163.3103 C.2     1  UNL1        0.0666
     26 N         137.2410  141.7091  162.2369 N.2     1  UNL1       -0.2478
     27 C         137.7407  140.2956  162.2868 C.2     1  UNL1        0.0946
     28 C         138.7515  140.1999  163.3909 C.2     1  UNL1        0.0042
     29 C         138.8766  141.5542  164.0235 C.3     1  UNL1        0.0837
@<TRIPOS>BOND
     1     8     9    1
     2     9    10   am
     3    10    11    2
     4    10     1    1
     5     1     2   ar
     6     2     3   ar
     7     3    13    1
     8    13    14    2
     9    13    15   am
    10    15    17    1
    11    17    18    1
    12    18    19    1
    13     3     4   ar
    14     4     5   ar
    15     5    20    1
    16    20    21    1
    17    21    22    2
    18    22    23    1
    19    23    24    2
    20    24    25    1
    21    25    26    2
    22    26    27    1
    23    27    28    2
    24    28    29    1
    25     5     6   ar
    26     6     7    2
    27     6     1   ar
    28    19    17    1
    29    29    21    1
    30    29    25    1
    31     9    12    1
    32    15    16    1
@<TRIPOS>MOLECULE
*****
 29 32 0 0 0
SMALL
GASTEIGER

@<TRIPOS>ATOM
      1 C         141.9701  140.9852  168.6624 C.ar    1  UNL1        0.1096
      2 C         140.7404  140.3792  169.2712 C.ar    1  UNL1        0.0153
      3 C         139.5708  140.0232  168.4022 C.ar    1  UNL1        0.0709
      4 C         139.6308  140.2732  166.9243 C.ar    1  UNL1        0.0831
      5 N         140.8605  140.8792  166.3156 N.ar    1  UNL1       -0.2900
      6 C         142.0302  141.2353  167.1846 C.ar    1  UNL1        0.2655
      7 O         143.2599  141.8413  166.5759 O.2     1  UNL1       -0.2668
      8 C         144.9697  143.0364  170.2577 C.3     1  UNL1        0.1109
      9 N         143.8001  142.6804  169.3886 N.am    1  UNL1       -0.2990
     10 C         143.1398  141.3412  169.5314 C.2     1  UNL1        0.2505
     11 O         143.6491  140.3580  170.5433 O.2     1  UNL1       -0.2700
     12 H         143.4659  143.3258  168.7245 H       1  UNL1        0.1498
     13 C         138.3411  139.4171  169.0109 C.2     1  UNL1        0.2473
     14 O         137.3892  138.6340  168.1563 O.2     1  UNL1       -0.2701
     15 N         138.0634  139.5943  170.4743 N.am    1  UNL1       -0.3024
     16 H         138.6881  140.1083  171.0352 H       1  UNL1        0.1497
     17 C         136.8336  138.9882  171.0830 C.3     1  UNL1        0.0720
     18 C         135.4306  139.1328  171.5936 C.3     1  UNL1        0.0213
     19 C         136.1067  137.7941  171.6268 C.3     1  UNL1        0.0213
     20 C         140.9206  141.1293  164.8378 C.3     1  UNL1        0.1322
     21 C         140.9950  142.5341  164.3172 C.2     1  UNL1       -0.0123
     22 C         139.8941  143.5061  164.6219 C.2     1  UNL1       -0.0059
     23 C         139.9685  144.9109  164.1014 C.2     1  UNL1        0.0007
     24 C         141.1440  145.3437  163.2761 C.2     1  UNL1        0.0153
     25 C         142.2450  144.3716  162.9714 C.2     1  UNL1        0.0666
     26 N         143.5179  144.5096  162.1901 N.2     1  UNL1       -0.2478
     27 C         144.2302  143.1900  162.2278 C.2     1  UNL1        0.0946
     28 C         143.3975  142.2365  163.0324 C.2     1  UNL1        0.0042
     29 C         142.1705  142.9668  163.4920 C.3     1  UNL1        0.0837
@<TRIPOS>BOND
     1     8     9    1
     2     9    10   am
     3    10    11    2
     4    10     1    1
     5     1     2   ar
     6     2     3   ar
     7     3    13    1
     8    13    14    2
     9    13    15   am
    10    15    17    1
    11    17    18    1
    12    18    19    1
    13     3     4   ar
    14     4     5   ar
    15     5    20    1
    16    20    21    1
    17    21    22    2
    18    22    23    1
    19    23    24    2
    20    24    25    1
    21    25    26    2
    22    26    27    1
    23    27    28    2
    24    28    29    1
    25     5     6   ar
    26     6     7    2
    27     6     1   ar
    28    19    17    1
    29    29    21    1
    30    29    25    1
    31     9    12    1
    32    15    16    1
@<TRIPOS>MOLECULE
*****
 29 32 0 0 0
SMALL
GASTEIGER

@<TRIPOS>ATOM
      1 C         141.8568  141.8602  168.9061 C.ar    1  UNL1        0.1096
      2 C         140.6815  141.0949  169.4383 C.ar    1  UNL1        0.0153
      3 C         139.7033  140.4675  168.4900 C.ar    1  UNL1        0.0709
      4 C         139.9002  140.6054  167.0093 C.ar    1  UNL1        0.0831
      5 N         141.0754  141.3707  166.4771 N.ar    1  UNL1       -0.2900
      6 C         142.0537  141.9981  167.4255 C.ar    1  UNL1        0.2655
      7 O         143.2289  142.7634  166.8933 O.2     1  UNL1       -0.2668
      8 C         145.2476  143.2839  170.3978 C.3     1  UNL1        0.1109
      9 N         144.2694  142.6565  169.4494 N.am    1  UNL1       -0.2990
     10 C         142.8350  142.4875  169.8545 C.2     1  UNL1        0.2505
     11 O         142.3789  142.9459  171.2079 O.2     1  UNL1       -0.2700
     12 H         144.5687  142.3557  168.5611 H       1  UNL1        0.1498
     13 C         138.5281  139.7022  169.0222 C.2     1  UNL1        0.2473
     14 O         137.7468  138.8001  168.1135 O.2     1  UNL1       -0.2701
     15 N         138.1342  139.8391  170.4630 N.am    1  UNL1       -0.3024
     16 H         138.6470  140.4311  171.0595 H       1  UNL1        0.1497
     17 C         136.9590  139.0737  170.9952 C.3     1  UNL1        0.0720
     18 C         136.3127  137.7678  171.3513 C.3     1  UNL1        0.0213
     19 C         135.5698  139.0541  171.5609 C.3     1  UNL1        0.0213
     20 C         141.2723  141.5086  164.9965 C.3     1  UNL1        0.1322
     21 C         142.0019  140.4424  164.2344 C.2     1  UNL1       -0.0123
     22 C         143.4987  140.4770  164.1426 C.2     1  UNL1       -0.0059
     23 C         144.2282  139.4108  163.3806 C.2     1  UNL1        0.0007
     24 C         143.4610  138.3098  162.7101 C.2     1  UNL1        0.0153
     25 C         141.9642  138.2752  162.8019 C.2     1  UNL1        0.0666
     26 N         140.9466  137.3222  162.2486 N.2     1  UNL1       -0.2478
     27 C         139.5880  137.7995  162.6688 C.2     1  UNL1        0.0946
     28 C         139.7661  139.0475  163.4818 C.2     1  UNL1        0.0042
     29 C         141.2347  139.3415  163.5640 C.3     1  UNL1        0.0837
@<TRIPOS>BOND
     1     8     9    1
     2     9    10   am
     3    10    11    2
     4    10     1    1
     5     1     2   ar
     6     2     3   ar
     7     3    13    1
     8    13    14    2
     9    13    15   am
    10    15    17    1
    11    17    18    1
    12    18    19    1
    13     3     4   ar
    14     4     5   ar
    15     5    20    1
    16    20    21    1
    17    21    22    2
    18    22    23    1
    19    23    24    2
    20    24    25    1
    21    25    26    2
    22    26    27    1
    23    27    28    2
    24    28    29    1
    25     5     6   ar
    26     6     7    2
    27     6     1   ar
    28    19    17    1
    29    29    21    1
    30    29    25    1
    31     9    12    1
    32    15    16    1
@<TRIPOS>MOLECULE
*****
 29 32 0 0 0
SMALL
GASTEIGER

@<TRIPOS>ATOM
      1 C         141.5769  141.8447  168.7286 C.ar    1  UNL1        0.1096
      2 C         140.4328  141.0866  169.3339 C.ar    1  UNL1        0.0153
      3 C         139.4852  140.3287  168.4522 C.ar    1  UNL1        0.0709
      4 C         139.6817  140.3287  166.9651 C.ar    1  UNL1        0.0831
      5 N         140.8258  141.0868  166.3598 N.ar    1  UNL1       -0.2900
      6 C         141.7734  141.8448  167.2415 C.ar    1  UNL1        0.2655
      7 O         142.9175  142.6029  166.6363 O.2     1  UNL1       -0.2668
      8 C         144.9528  143.1926  170.3213 C.3     1  UNL1        0.1109
      9 N         144.0052  142.4346  169.4395 N.am    1  UNL1       -0.2990
     10 C         142.5245  142.6027  169.6104 C.2     1  UNL1        0.2505
     11 O         141.9914  143.5288  170.6631 O.2     1  UNL1       -0.2700
     12 H         144.3551  141.8268  168.7486 H       1  UNL1        0.1498
     13 C         138.3412  139.5706  169.0575 C.2     1  UNL1        0.2473
     14 O         137.5503  138.6107  168.2189 O.2     1  UNL1       -0.2701
     15 N         137.9879  139.7724  170.5013 N.am    1  UNL1       -0.3024
     16 H         138.5070  140.4024  171.0516 H       1  UNL1        0.1497
     17 C         136.8438  139.0143  171.1065 C.3     1  UNL1        0.0720
     18 C         135.4239  138.9715  171.5881 C.3     1  UNL1        0.0213
     19 C         136.2821  137.7441  171.6733 C.3     1  UNL1        0.0213
     20 C         141.0223  141.0869  164.8727 C.3     1  UNL1        0.1322
     21 C         139.8366  141.1881  163.9595 C.2     1  UNL1       -0.0123
     22 C         139.1954  142.5206  163.7077 C.2     1  UNL1       -0.0059
     23 C         138.0098  142.6218  162.7946 C.2     1  UNL1        0.0007
     24 C         137.4652  141.3905  162.1331 C.2     1  UNL1        0.0153
     25 C         138.1064  140.0580  162.3849 C.2     1  UNL1        0.0666
     26 N         137.7930  138.6816  161.8778 N.2     1  UNL1       -0.2478
     27 C         138.7850  137.7297  162.4776 C.2     1  UNL1        0.0946
     28 C         139.7115  138.5178  163.3554 C.2     1  UNL1        0.0042
     29 C         139.2921  139.9568  163.2981 C.3     1  UNL1        0.0837
@<TRIPOS>BOND
     1     8     9    1
     2     9    10   am
     3    10    11    2
     4    10     1    1
     5     1     2   ar
     6     2     3   ar
     7     3    13    1
     8    13    14    2
     9    13    15   am
    10    15    17    1
    11    17    18    1
    12    18    19    1
    13     3     4   ar
    14     4     5   ar
    15     5    20    1
    16    20    21    1
    17    21    22    2
    18    22    23    1
    19    23    24    2
    20    24    25    1
    21    25    26    2
    22    26    27    1
    23    27    28    2
    24    28    29    1
    25     5     6   ar
    26     6     7    2
    27     6     1   ar
    28    19    17    1
    29    29    21    1
    30    29    25    1
    31     9    12    1
    32    15    16    1
@<TRIPOS>MOLECULE
*****
 29 32 0 0 0
SMALL
GASTEIGER

@<TRIPOS>ATOM
      1 C         140.9345  142.1451  169.5980 C.ar    1  UNL1        0.1096
      2 C         141.7166  141.1380  170.3881 C.ar    1  UNL1        0.0153
      3 C         142.5400  140.1041  169.6789 C.ar    1  UNL1        0.0709
      4 C         142.5814  140.0772  168.1797 C.ar    1  UNL1        0.0831
      5 N         141.7993  141.0843  167.3897 N.ar    1  UNL1       -0.2900
      6 C         140.9758  142.1183  168.0989 C.ar    1  UNL1        0.2655
      7 O         140.1937  143.1253  167.3089 O.2     1  UNL1       -0.2668
      8 C         139.5199  145.6703  170.7478 C.3     1  UNL1        0.1109
      9 N         140.3433  144.6364  170.0386 N.am    1  UNL1       -0.2990
     10 C         140.1111  143.1790  170.3072 C.2     1  UNL1        0.2505
     11 O         139.0553  142.7556  171.2851 O.2     1  UNL1       -0.2700
     12 H         141.0363  144.9143  169.3968 H       1  UNL1        0.1498
     13 C         143.3221  139.0970  170.4689 C.2     1  UNL1        0.2473
     14 O         144.1904  139.5465  171.6064 O.2     1  UNL1       -0.2701
     15 N         143.2359  137.6403  170.1213 N.am    1  UNL1       -0.3024
     16 H         142.6661  137.3453  169.3747 H       1  UNL1        0.1497
     17 C         144.0181  136.6332  170.9114 C.3     1  UNL1        0.0720
     18 C         144.0744  135.5748  171.9727 C.3     1  UNL1        0.0213
     19 C         145.3163  135.9474  171.2183 C.3     1  UNL1        0.0213
     20 C         141.8406  141.0574  165.8905 C.3     1  UNL1        0.1322
     21 C         141.4981  139.7968  165.1532 C.2     1  UNL1       -0.0123
     22 C         142.4292  139.2648  164.1045 C.2     1  UNL1       -0.0059
     23 C         142.0867  138.0043  163.3672 C.2     1  UNL1        0.0007
     24 C         140.8131  137.2756  163.6787 C.2     1  UNL1        0.0153
     25 C         139.8819  137.8076  164.7275 C.2     1  UNL1        0.0666
     26 N         138.5655  137.3101  165.2465 N.2     1  UNL1       -0.2478
     27 C         138.0944  138.2632  166.3046 C.2     1  UNL1        0.0946
     28 C         139.1197  139.3498  166.4395 C.2     1  UNL1        0.0042
     29 C         140.2245  139.0682  165.4648 C.3     1  UNL1        0.0837
@<TRIPOS>BOND
     1     8     9    1
     2     9    10   am
     3    10    11    2
     4    10     1    1
     5     1     2   ar
     6     2     3   ar
     7     3    13    1
     8    13    14    2
     9    13    15   am
    10    15    17    1
    11    17    18    1
    12    18    19    1
    13     3     4   ar
    14     4     5   ar
    15     5    20    1
    16    20    21    1
    17    21    22    2
    18    22    23    1
    19    23    24    2
    20    24    25    1
    21    25    26    2
    22    26    27    1
    23    27    28    2
    24    28    29    1
    25     5     6   ar
    26     6     7    2
    27     6     1   ar
    28    19    17    1
    29    29    21    1
    30    29    25    1
    31     9    12    1
    32    15    16    1
@<TRIPOS>MOLECULE
*****
 29 32 0 0 0
SMALL
GASTEIGER

@<TRIPOS>ATOM
      1 C         141.6575  141.8324  168.8706 C.ar    1  UNL1        0.1096
      2 C         140.5172  141.0440  169.4438 C.ar    1  UNL1        0.0153
      3 C         139.5220  140.3923  168.5302 C.ar    1  UNL1        0.0709
      4 C         139.6670  140.5288  167.0434 C.ar    1  UNL1        0.0831
      5 N         140.8072  141.3171  166.4703 N.ar    1  UNL1       -0.2900
      6 C         141.8025  141.9689  167.3839 C.ar    1  UNL1        0.2655
      7 O         142.9427  142.7573  166.8109 O.2     1  UNL1       -0.2668
      8 C         145.0924  143.2131  170.3008 C.3     1  UNL1        0.1109
      9 N         144.0972  142.5613  169.3871 N.am    1  UNL1       -0.2990
     10 C         142.6528  142.4841  169.7843 C.2     1  UNL1        0.2505
     11 O         142.2036  143.0586  171.0950 O.2     1  UNL1       -0.2700
     12 H         144.3920  142.1842  168.5268 H       1  UNL1        0.1498
     13 C         138.3818  139.6039  169.1033 C.2     1  UNL1        0.2473
     14 O         137.5868  138.6864  168.2223 O.2     1  UNL1       -0.2701
     15 N         138.0366  139.7331  170.5573 N.am    1  UNL1       -0.3024
     16 H         138.5585  140.3353  171.1355 H       1  UNL1        0.1497
     17 C         136.8964  138.9447  171.1304 C.3     1  UNL1        0.0720
     18 C         135.4328  138.8067  171.4284 C.3     1  UNL1        0.0213
     19 C         136.3850  137.7175  171.8249 C.3     1  UNL1        0.0213
     20 C         140.9522  141.4537  164.9836 C.3     1  UNL1        0.1322
     21 C         141.9338  140.5941  164.2437 C.2     1  UNL1       -0.0123
     22 C         141.7319  139.1091  164.1805 C.2     1  UNL1       -0.0059
     23 C         142.7135  138.2496  163.4406 C.2     1  UNL1        0.0007
     24 C         143.8971  138.8750  162.7638 C.2     1  UNL1        0.0153
     25 C         144.0990  140.3600  162.8270 C.2     1  UNL1        0.0666
     26 N         145.1632  141.2531  162.2614 N.2     1  UNL1       -0.2478
     27 C         144.8392  142.6647  162.6518 C.2     1  UNL1        0.0946
     28 C         143.5748  142.6440  163.4587 C.2     1  UNL1        0.0042
     29 C         143.1174  141.2196  163.5669 C.3     1  UNL1        0.0837
@<TRIPOS>BOND
     1     8     9    1
     2     9    10   am
     3    10    11    2
     4    10     1    1
     5     1     2   ar
     6     2     3   ar
     7     3    13    1
     8    13    14    2
     9    13    15   am
    10    15    17    1
    11    17    18    1
    12    18    19    1
    13     3     4   ar
    14     4     5   ar
    15     5    20    1
    16    20    21    1
    17    21    22    2
    18    22    23    1
    19    23    24    2
    20    24    25    1
    21    25    26    2
    22    26    27    1
    23    27    28    2
    24    28    29    1
    25     5     6   ar
    26     6     7    2
    27     6     1   ar
    28    19    17    1
    29    29    21    1
    30    29    25    1
    31     9    12    1
    32    15    16    1
@<TRIPOS>MOLECULE
*****
 29 32 0 0 0
SMALL
GASTEIGER

@<TRIPOS>ATOM
      1 C         141.8558  144.1108  158.3760 C.ar    1  UNL1        0.1096
      2 C         140.8468  144.4988  159.4160 C.ar    1  UNL1        0.0153
      3 C         141.1266  144.2384  160.8664 C.ar    1  UNL1        0.0709
      4 C         142.4155  143.5901  161.2770 C.ar    1  UNL1        0.0831
      5 N         143.4244  143.2021  160.2370 N.ar    1  UNL1       -0.2900
      6 C         143.1446  143.4625  158.7865 C.ar    1  UNL1        0.2655
      7 O         144.1536  143.0745  157.7465 O.2     1  UNL1       -0.2668
      8 C         142.3858  145.1450  154.5813 C.3     1  UNL1        0.1109
      9 N         142.6657  144.8846  156.0318 N.am    1  UNL1       -0.2990
     10 C         141.5759  144.3712  156.9255 C.2     1  UNL1        0.2505
     11 O         140.2062  144.1182  156.3688 O.2     1  UNL1       -0.2700
     12 H         143.5646  145.0507  156.3971 H       1  UNL1        0.1498
     13 C         140.1177  144.6264  161.9063 C.2     1  UNL1        0.2473
     14 O         139.1917  145.7803  161.6592 O.2     1  UNL1       -0.2701
     15 N         140.0348  143.8605  163.1934 N.am    1  UNL1       -0.3024
     16 H         140.6425  143.1031  163.3555 H       1  UNL1        0.1497
     17 C         139.0258  144.2485  164.2334 C.3     1  UNL1        0.0720
     18 C         137.6276  144.1878  164.7731 C.3     1  UNL1        0.0213
     19 C         138.6764  144.9811  165.4948 C.3     1  UNL1        0.0213
     20 C         144.7133  142.5538  160.6475 C.3     1  UNL1        0.1322
     21 C         144.7223  141.5315  161.7452 C.2     1  UNL1       -0.0123
     22 C         145.3664  141.8503  163.0618 C.2     1  UNL1       -0.0059
     23 C         145.3754  140.8281  164.1594 C.2     1  UNL1        0.0007
     24 C         144.7403  139.4869  163.9405 C.2     1  UNL1        0.0153
     25 C         144.0961  139.1680  162.6239 C.2     1  UNL1        0.0666
     26 N         143.3965  137.9406  162.1200 N.2     1  UNL1       -0.2478
     27 C         142.9551  138.2043  160.7109 C.2     1  UNL1        0.0946
     28 C         143.3819  139.5947  160.3439 C.2     1  UNL1        0.0042
     29 C         144.0871  140.1903  161.5262 C.3     1  UNL1        0.0837
@<TRIPOS>BOND
     1     8     9    1
     2     9    10   am
     3    10    11    2
     4    10     1    1
     5     1     2   ar
     6     2     3   ar
     7     3    13    1
     8    13    14    2
     9    13    15   am
    10    15    17    1
    11    17    18    1
    12    18    19    1
    13     3     4   ar
    14     4     5   ar
    15     5    20    1
    16    20    21    1
    17    21    22    2
    18    22    23    1
    19    23    24    2
    20    24    25    1
    21    25    26    2
    22    26    27    1
    23    27    28    2
    24    28    29    1
    25     5     6   ar
    26     6     7    2
    27     6     1   ar
    28    19    17    1
    29    29    21    1
    30    29    25    1
    31     9    12    1
    32    15    16    1
@<TRIPOS>MOLECULE
*****
 29 32 0 0 0
SMALL
GASTEIGER

@<TRIPOS>ATOM
      1 C         140.6319  142.1155  167.7077 C.ar    1  UNL1        0.1096
      2 C         140.3089  143.1707  166.6916 C.ar    1  UNL1        0.0153
      3 C         140.1572  142.7989  165.2464 C.ar    1  UNL1        0.0709
      4 C         140.3284  141.3718  164.8172 C.ar    1  UNL1        0.0831
      5 N         140.6513  140.3166  165.8332 N.ar    1  UNL1       -0.2900
      6 C         140.8031  140.6885  167.2785 C.ar    1  UNL1        0.2655
      7 O         141.1261  139.6333  168.2945 O.2     1  UNL1       -0.2668
      8 C         141.9068  142.1155  171.4660 C.3     1  UNL1        0.1109
      9 N         141.7550  141.7435  170.0208 N.am    1  UNL1       -0.2990
     10 C         140.7837  142.4874  169.1529 C.2     1  UNL1        0.2505
     11 O         139.9641  143.6032  169.7302 O.2     1  UNL1       -0.2700
     12 H         142.2929  141.0112  169.6418 H       1  UNL1        0.1498
     13 C         139.8342  143.8540  164.2304 C.2     1  UNL1        0.2473
     14 O         138.6975  144.8029  164.4700 O.2     1  UNL1       -0.2701
     15 N         140.6479  143.9602  162.9748 N.am    1  UNL1       -0.3024
     16 H         141.3939  143.3373  162.8175 H       1  UNL1        0.1497
     17 C         140.3249  145.0154  161.9587 C.3     1  UNL1        0.0720
     18 C         139.6958  146.3309  161.6071 C.3     1  UNL1        0.0213
     19 C         140.3945  145.5274  160.5505 C.3     1  UNL1        0.0213
     20 C         140.8225  138.8896  165.4040 C.3     1  UNL1        0.1322
     21 C         141.1619  138.5708  163.9781 C.2     1  UNL1       -0.0123
     22 C         142.5953  138.4122  163.5657 C.2     1  UNL1       -0.0059
     23 C         142.9346  138.0935  162.1399 C.2     1  UNL1        0.0007
     24 C         141.8405  137.9332  161.1263 C.2     1  UNL1        0.0153
     25 C         140.4071  138.0917  161.5387 C.2     1  UNL1        0.0666
     26 N         139.1241  137.9923  160.7679 N.2     1  UNL1       -0.2478
     27 C         137.9918  138.2496  161.7175 C.2     1  UNL1        0.0946
     28 C         138.5750  138.5081  163.0751 C.2     1  UNL1        0.0042
     29 C         140.0678  138.4105  162.9646 C.3     1  UNL1        0.0837
@<TRIPOS>BOND
     1     8     9    1
     2     9    10   am
     3    10    11    2
     4    10     1    1
     5     1     2   ar
     6     2     3   ar
     7     3    13    1
     8    13    14    2
     9    13    15   am
    10    15    17    1
    11    17    18    1
    12    18    19    1
    13     3     4   ar
    14     4     5   ar
    15     5    20    1
    16    20    21    1
    17    21    22    2
    18    22    23    1
    19    23    24    2
    20    24    25    1
    21    25    26    2
    22    26    27    1
    23    27    28    2
    24    28    29    1
    25     5     6   ar
    26     6     7    2
    27     6     1   ar
    28    19    17    1
    29    29    21    1
    30    29    25    1
    31     9    12    1
    32    15    16    1
