@<TRIPOS>MOLECULE
*****
 37 41 0 0 0
SMALL
GASTEIGER

@<TRIPOS>ATOM
      1 N         137.8931  142.9303  163.2893 N.3     1  UNL1       -0.2711
      2 C         138.0790  142.7522  161.8116 C.3     1  UNL1        0.0735
      3 C         138.0853  141.3750  161.2171 C.3     1  UNL1        0.0331
      4 C         137.9056  140.1761  162.1004 C.3     1  UNL1        0.0570
      5 C         137.7197  140.3543  163.5781 C.3     1  UNL1        0.0331
      6 C         137.7134  141.7314  164.1726 C.3     1  UNL1        0.0735
      7 N         137.9118  138.7989  161.5059 N.3     1  UNL1       -0.2934
      8 H         137.3303  138.8369  160.6688 H       1  UNL1        0.1236
      9 C         139.2088  138.1615  161.1037 C.3     1  UNL1        0.1152
     10 C         140.4185  138.3059  161.9786 C.ar    1  UNL1        0.0765
     11 C         140.5909  137.4152  163.1731 C.ar    1  UNL1        0.0193
     12 C         141.8007  137.5596  164.0481 C.ar    1  UNL1        0.0411
     13 C         142.8381  138.5948  163.7286 C.ar    1  UNL1        0.1708
     14 C         142.6657  139.4856  162.5341 C.ar    1  UNL1        0.1682
     15 N         141.4559  139.3412  161.6591 N.ar    1  UNL1       -0.2304
     16 N         143.7031  140.5208  162.2145 N.am    1  UNL1       -0.2639
     17 C         144.9129  140.6652  163.0895 C.2     1  UNL1        0.2718
     18 O         145.9503  141.7005  162.7700 O.2     1  UNL1       -0.2707
     19 C         145.0853  139.7745  164.2840 C.3     1  UNL1        0.2898
     20 O         144.0479  138.7392  164.6035 O.3     1  UNL1       -0.4628
     21 H         143.5900  141.1055  161.4306 H       1  UNL1        0.1565
     22 C         137.8869  144.3075  163.8838 C.3     1  UNL1        0.0942
     23 C         138.9972  144.7352  164.7972 C.3     1  UNL1        0.1157
     24 C         140.7812  141.6570  167.5525 C.ar    1  UNL1        0.0362
     25 C         142.1775  141.1610  167.3192 C.ar    1  UNL1        0.0060
     26 C         142.9790  141.6910  166.1674 C.ar    1  UNL1        0.0383
     27 C         142.3844  142.7171  165.2490 C.ar    1  UNL1        0.1528
     28 C         140.9881  143.2131  165.4823 C.ar    1  UNL1        0.0882
     29 C         140.1866  142.6830  166.6341 C.ar    1  UNL1        0.0208
     30 N         140.3934  144.2392  164.5639 N.am    1  UNL1       -0.2515
     31 C         141.1949  144.7692  163.4121 C.2     1  UNL1        0.2740
     32 O         140.6003  145.7953  162.4937 O.2     1  UNL1       -0.2705
     33 C         142.5912  144.2731  163.1788 C.3     1  UNL1        0.2900
     34 O         143.1859  143.2471  164.0972 O.3     1  UNL1       -0.4643
     35 C         139.8664  141.9248  169.9694 C.3     1  UNL1        0.0773
     36 C         139.9797  141.1269  168.7043 C.2     1  UNL1        0.1735
     37 O         139.2914  139.7990  168.5910 O.2     1  UNL1       -0.2913
@<TRIPOS>BOND
     1    35    36    1
     2    36    37    2
     3    36    24    1
     4    24    25   ar
     5    25    26   ar
     6    26    27   ar
     7    27    28   ar
     8    28    29   ar
     9    28    30    1
    10    30    23    1
    11    23    22    1
    12    22     1    1
    13     1     2    1
    14     2     3    1
    15     3     4    1
    16     4     7    1
    17     7     9    1
    18     9    10    1
    19    10    11   ar
    20    11    12   ar
    21    12    13   ar
    22    13    14   ar
    23    14    15   ar
    24    14    16    1
    25    16    17   am
    26    17    18    2
    27    17    19    1
    28    19    20    1
    29     4     5    1
    30     5     6    1
    31    30    31   am
    32    31    32    2
    33    31    33    1
    34    33    34    1
    35    29    24   ar
    36     6     1    1
    37    34    27    1
    38    15    10   ar
    39    20    13    1
    40     7     8    1
    41    16    21    1
@<TRIPOS>MOLECULE
*****
 37 41 0 0 0
SMALL
GASTEIGER

@<TRIPOS>ATOM
      1 N         141.9140  138.1930  163.9852 N.3     1  UNL1       -0.2711
      2 C         142.8199  138.6889  165.0730 C.3     1  UNL1        0.0735
      3 C         144.0444  139.4826  164.7257 C.3     1  UNL1        0.0331
      4 C         144.3629  139.7805  163.2906 C.3     1  UNL1        0.0570
      5 C         143.4569  139.2846  162.2027 C.3     1  UNL1        0.0331
      6 C         142.2325  138.4909  162.5500 C.3     1  UNL1        0.0735
      7 N         145.5874  140.5743  162.9432 N.3     1  UNL1       -0.2934
      8 H         145.6851  140.5359  161.9286 H       1  UNL1        0.1236
      9 C         145.6795  142.0199  163.3327 C.3     1  UNL1        0.1152
     10 C         144.4799  142.9104  163.1994 C.ar    1  UNL1        0.0765
     11 C         143.8735  143.5392  164.4188 C.ar    1  UNL1        0.0193
     12 C         142.6739  144.4299  164.2856 C.ar    1  UNL1        0.0411
     13 C         142.0806  144.6916  162.9330 C.ar    1  UNL1        0.1708
     14 C         142.6871  144.0628  161.7136 C.ar    1  UNL1        0.1682
     15 N         143.8867  143.1722  161.8468 N.ar    1  UNL1       -0.2304
     16 N         142.0938  144.3246  160.3610 N.am    1  UNL1       -0.2639
     17 C         140.8942  145.2152  160.2278 C.2     1  UNL1        0.2718
     18 O         140.3009  145.4770  158.8752 O.2     1  UNL1       -0.2707
     19 C         140.2878  145.8440  161.4471 C.3     1  UNL1        0.2898
     20 O         140.8810  145.5822  162.7997 O.3     1  UNL1       -0.4628
     21 H         142.4918  143.9119  159.5606 H       1  UNL1        0.1565
     22 C         140.6895  137.3992  164.3326 C.3     1  UNL1        0.0942
     23 C         139.4518  138.0999  164.8093 C.3     1  UNL1        0.1157
     24 C         140.2054  142.1336  166.6562 C.ar    1  UNL1        0.0362
     25 C         139.7326  143.3764  165.9621 C.ar    1  UNL1        0.0060
     26 C         139.0086  143.2747  164.6523 C.ar    1  UNL1        0.0383
     27 C         138.7574  141.9301  164.0367 C.ar    1  UNL1        0.1528
     28 C         139.2302  140.6873  164.7308 C.ar    1  UNL1        0.0882
     29 C         139.9542  140.7891  166.0406 C.ar    1  UNL1        0.0208
     30 N         138.9790  139.3427  164.1152 N.am    1  UNL1       -0.2515
     31 C         138.2550  139.2409  162.8054 C.2     1  UNL1        0.2740
     32 O         138.0038  137.8964  162.1898 O.2     1  UNL1       -0.2705
     33 C         137.7822  140.4838  162.1113 C.3     1  UNL1        0.2900
     34 O         138.0334  141.8284  162.7269 O.3     1  UNL1       -0.4643
     35 C         140.4724  143.2201  169.0010 C.3     1  UNL1        0.0773
     36 C         140.9294  142.2354  167.9659 C.2     1  UNL1        0.1735
     37 O         142.1104  141.3523  168.2407 O.2     1  UNL1       -0.2913
@<TRIPOS>BOND
     1    35    36    1
     2    36    37    2
     3    36    24    1
     4    24    25   ar
     5    25    26   ar
     6    26    27   ar
     7    27    28   ar
     8    28    29   ar
     9    28    30    1
    10    30    23    1
    11    23    22    1
    12    22     1    1
    13     1     2    1
    14     2     3    1
    15     3     4    1
    16     4     7    1
    17     7     9    1
    18     9    10    1
    19    10    11   ar
    20    11    12   ar
    21    12    13   ar
    22    13    14   ar
    23    14    15   ar
    24    14    16    1
    25    16    17   am
    26    17    18    2
    27    17    19    1
    28    19    20    1
    29     4     5    1
    30     5     6    1
    31    30    31   am
    32    31    32    2
    33    31    33    1
    34    33    34    1
    35    29    24   ar
    36     6     1    1
    37    34    27    1
    38    15    10   ar
    39    20    13    1
    40     7     8    1
    41    16    21    1
@<TRIPOS>MOLECULE
*****
 37 41 0 0 0
SMALL
GASTEIGER

@<TRIPOS>ATOM
      1 N         140.9368  144.8679  162.9005 N.3     1  UNL1       -0.2711
      2 C         141.9855  144.8592  163.9729 C.3     1  UNL1        0.0735
      3 C         143.3597  144.3375  163.6738 C.3     1  UNL1        0.0331
      4 C         143.6851  143.8246  162.3023 C.3     1  UNL1        0.0570
      5 C         142.6364  143.8333  161.2299 C.3     1  UNL1        0.0331
      6 C         141.2622  144.3549  161.5290 C.3     1  UNL1        0.0735
      7 N         145.0594  143.3029  162.0032 N.3     1  UNL1       -0.2934
      8 H         145.6514  143.5636  162.7918 H       1  UNL1        0.1236
      9 C         145.2704  141.8363  161.7697 C.3     1  UNL1        0.1152
     10 C         144.5246  140.8304  162.5954 C.ar    1  UNL1        0.0765
     11 C         145.1127  140.3326  163.8824 C.ar    1  UNL1        0.0193
     12 C         144.3670  139.3267  164.7083 C.ar    1  UNL1        0.0411
     13 C         143.0332  138.8185  164.2471 C.ar    1  UNL1        0.1708
     14 C         142.4451  139.3163  162.9600 C.ar    1  UNL1        0.1682
     15 N         143.1908  140.3222  162.1342 N.ar    1  UNL1       -0.2304
     16 N         141.1113  138.8081  162.4988 N.am    1  UNL1       -0.2639
     17 C         140.3655  137.8021  163.3247 C.2     1  UNL1        0.2718
     18 O         139.0317  137.2940  162.8635 O.2     1  UNL1       -0.2707
     19 C         140.9536  137.3044  164.6117 C.3     1  UNL1        0.2898
     20 O         142.2874  137.8126  165.0729 O.3     1  UNL1       -0.4628
     21 H         140.7253  139.1348  161.6541 H       1  UNL1        0.1565
     22 C         139.5626  145.3896  163.1996 C.3     1  UNL1        0.0942
     23 C         138.6799  144.6638  164.1713 C.3     1  UNL1        0.1157
     24 C         140.2979  142.3315  167.6630 C.ar    1  UNL1        0.0362
     25 C         140.2447  140.8325  167.6529 C.ar    1  UNL1        0.0060
     26 C         139.6522  140.1109  166.4789 C.ar    1  UNL1        0.0383
     27 C         139.1129  140.8883  165.3150 C.ar    1  UNL1        0.1528
     28 C         139.1661  142.3873  165.3251 C.ar    1  UNL1        0.0882
     29 C         139.7586  143.1089  166.4991 C.ar    1  UNL1        0.0208
     30 N         138.6267  143.1648  164.1612 N.am    1  UNL1       -0.2515
     31 C         138.0342  142.4433  162.9872 C.2     1  UNL1        0.2740
     32 O         137.4949  143.2207  161.8233 O.2     1  UNL1       -0.2705
     33 C         137.9811  140.9442  162.9771 C.3     1  UNL1        0.2900
     34 O         138.5204  140.1668  164.1410 O.3     1  UNL1       -0.4643
     35 C         142.2653  142.6974  169.3199 C.3     1  UNL1        0.0773
     36 C         140.8904  143.0530  168.8370 C.2     1  UNL1        0.1735
     37 O         140.1081  144.1302  169.5280 O.2     1  UNL1       -0.2913
@<TRIPOS>BOND
     1    35    36    1
     2    36    37    2
     3    36    24    1
     4    24    25   ar
     5    25    26   ar
     6    26    27   ar
     7    27    28   ar
     8    28    29   ar
     9    28    30    1
    10    30    23    1
    11    23    22    1
    12    22     1    1
    13     1     2    1
    14     2     3    1
    15     3     4    1
    16     4     7    1
    17     7     9    1
    18     9    10    1
    19    10    11   ar
    20    11    12   ar
    21    12    13   ar
    22    13    14   ar
    23    14    15   ar
    24    14    16    1
    25    16    17   am
    26    17    18    2
    27    17    19    1
    28    19    20    1
    29     4     5    1
    30     5     6    1
    31    30    31   am
    32    31    32    2
    33    31    33    1
    34    33    34    1
    35    29    24   ar
    36     6     1    1
    37    34    27    1
    38    15    10   ar
    39    20    13    1
    40     7     8    1
    41    16    21    1
@<TRIPOS>MOLECULE
*****
 37 41 0 0 0
SMALL
GASTEIGER

@<TRIPOS>ATOM
      1 N         139.7941  143.8639  163.6876 N.3     1  UNL1       -0.2711
      2 C         140.2713  143.2900  164.9887 C.3     1  UNL1        0.0735
      3 C         141.7403  143.2202  165.2838 C.3     1  UNL1        0.0331
      4 C         142.7321  143.7242  164.2777 C.3     1  UNL1        0.0570
      5 C         142.2549  144.2981  162.9766 C.3     1  UNL1        0.0331
      6 C         140.7859  144.3680  162.6815 C.3     1  UNL1        0.0735
      7 N         144.2012  143.6544  164.5727 N.3     1  UNL1       -0.2934
      8 H         144.3314  144.0325  165.5111 H       1  UNL1        0.1236
      9 C         144.9117  142.3339  164.5356 C.3     1  UNL1        0.1152
     10 C         144.3128  141.1809  163.7860 C.ar    1  UNL1        0.0765
     11 C         143.6308  140.0736  164.5334 C.ar    1  UNL1        0.0193
     12 C         143.0319  138.9205  163.7839 C.ar    1  UNL1        0.0411
     13 C         143.1151  138.8748  162.2869 C.ar    1  UNL1        0.1708
     14 C         143.7972  139.9821  161.5394 C.ar    1  UNL1        0.1682
     15 N         144.3960  141.1351  162.2890 N.ar    1  UNL1       -0.2304
     16 N         143.8804  139.9364  160.0425 N.am    1  UNL1       -0.2639
     17 C         143.2815  138.7833  159.2929 C.2     1  UNL1        0.2718
     18 O         143.3647  138.7375  157.7959 O.2     1  UNL1       -0.2707
     19 C         142.5995  137.6760  160.0403 C.3     1  UNL1        0.2898
     20 O         142.5162  137.7217  161.5373 O.3     1  UNL1       -0.4628
     21 H         144.3281  140.6631  159.5519 H       1  UNL1        0.1565
     22 C         138.3250  143.9337  163.3926 C.3     1  UNL1        0.0942
     23 C         137.5446  142.6727  163.1670 C.3     1  UNL1        0.1157
     24 C         138.4676  138.9269  165.4836 C.ar    1  UNL1        0.0362
     25 C         139.1112  137.7594  164.7962 C.ar    1  UNL1        0.0060
     26 C         139.4472  137.8405  163.3366 C.ar    1  UNL1        0.0383
     27 C         139.1396  139.0891  162.5644 C.ar    1  UNL1        0.1528
     28 C         138.4959  140.2566  163.2518 C.ar    1  UNL1        0.0882
     29 C         138.1599  140.1755  164.7114 C.ar    1  UNL1        0.0208
     30 N         138.1882  141.5052  162.4796 N.am    1  UNL1       -0.2515
     31 C         138.5242  141.5863  161.0199 C.2     1  UNL1        0.2740
     32 O         138.2166  142.8349  160.2477 O.2     1  UNL1       -0.2705
     33 C         139.1679  140.4187  160.3325 C.3     1  UNL1        0.2900
     34 O         139.4756  139.1701  161.1047 O.3     1  UNL1       -0.4643
     35 C         138.8886  139.6791  167.9345 C.3     1  UNL1        0.0773
     36 C         138.1316  138.8459  166.9433 C.2     1  UNL1        0.1735
     37 O         137.0386  137.9317  167.4116 O.2     1  UNL1       -0.2913
@<TRIPOS>BOND
     1    35    36    1
     2    36    37    2
     3    36    24    1
     4    24    25   ar
     5    25    26   ar
     6    26    27   ar
     7    27    28   ar
     8    28    29   ar
     9    28    30    1
    10    30    23    1
    11    23    22    1
    12    22     1    1
    13     1     2    1
    14     2     3    1
    15     3     4    1
    16     4     7    1
    17     7     9    1
    18     9    10    1
    19    10    11   ar
    20    11    12   ar
    21    12    13   ar
    22    13    14   ar
    23    14    15   ar
    24    14    16    1
    25    16    17   am
    26    17    18    2
    27    17    19    1
    28    19    20    1
    29     4     5    1
    30     5     6    1
    31    30    31   am
    32    31    32    2
    33    31    33    1
    34    33    34    1
    35    29    24   ar
    36     6     1    1
    37    34    27    1
    38    15    10   ar
    39    20    13    1
    40     7     8    1
    41    16    21    1
@<TRIPOS>MOLECULE
*****
 37 41 0 0 0
SMALL
GASTEIGER

@<TRIPOS>ATOM
      1 N         143.7400  141.9450  163.7509 N.3     1  UNL1       -0.2711
      2 C         142.9663  142.5854  164.8651 C.3     1  UNL1        0.0735
      3 C         142.1762  143.8343  164.6084 C.3     1  UNL1        0.0331
      4 C         142.1599  144.4429  163.2376 C.3     1  UNL1        0.0570
      5 C         142.9336  143.8026  162.1234 C.3     1  UNL1        0.0331
      6 C         143.7236  142.5536  162.3801 C.3     1  UNL1        0.0735
      7 N         141.3698  145.6919  162.9808 N.3     1  UNL1       -0.2934
      8 H         141.7835  146.1390  162.1626 H       1  UNL1        0.1236
      9 C         139.8937  145.6070  162.7280 C.3     1  UNL1        0.1152
     10 C         139.2517  144.2753  162.4741 C.ar    1  UNL1        0.0765
     11 C         138.5989  143.5305  163.6005 C.ar    1  UNL1        0.0193
     12 C         137.9568  142.1988  163.3466 C.ar    1  UNL1        0.0411
     13 C         137.9677  141.6120  161.9662 C.ar    1  UNL1        0.1708
     14 C         138.6206  142.3569  160.8397 C.ar    1  UNL1        0.1682
     15 N         139.2626  143.6885  161.0936 N.ar    1  UNL1       -0.2304
     16 N         138.6314  141.7701  159.4593 N.am    1  UNL1       -0.2639
     17 C         137.9894  140.4384  159.2054 C.2     1  UNL1        0.2718
     18 O         138.0002  139.8516  157.8250 O.2     1  UNL1       -0.2707
     19 C         137.3365  139.6936  160.3318 C.3     1  UNL1        0.2898
     20 O         137.3257  140.2804  161.7123 O.3     1  UNL1       -0.4628
     21 H         139.0599  142.2590  158.7199 H       1  UNL1        0.1565
     22 C         144.5300  140.6960  164.0077 C.3     1  UNL1        0.0942
     23 C         143.8426  139.4663  164.5227 C.3     1  UNL1        0.1157
     24 C         139.8245  139.7928  166.5222 C.ar    1  UNL1        0.0362
     25 C         138.5985  139.2740  165.8311 C.ar    1  UNL1        0.0060
     26 C         138.7118  138.6463  164.4735 C.ar    1  UNL1        0.0383
     27 C         140.0511  138.5374  163.8070 C.ar    1  UNL1        0.1528
     28 C         141.2771  139.0563  164.4981 C.ar    1  UNL1        0.0882
     29 C         141.1638  139.6840  165.8557 C.ar    1  UNL1        0.0208
     30 N         142.6166  138.9474  163.8315 N.am    1  UNL1       -0.2515
     31 C         142.7299  138.3197  162.4739 C.2     1  UNL1        0.2740
     32 O         144.0692  138.2109  161.8074 O.2     1  UNL1       -0.2705
     33 C         141.5038  137.8009  161.7828 C.3     1  UNL1        0.2900
     34 O         140.1645  137.9097  162.4493 O.3     1  UNL1       -0.4643
     35 C         140.3711  141.7394  168.1538 C.3     1  UNL1        0.0773
     36 C         139.7111  140.4205  167.8798 C.2     1  UNL1        0.1735
     37 O         138.9378  139.7294  168.9635 O.2     1  UNL1       -0.2913
@<TRIPOS>BOND
     1    35    36    1
     2    36    37    2
     3    36    24    1
     4    24    25   ar
     5    25    26   ar
     6    26    27   ar
     7    27    28   ar
     8    28    29   ar
     9    28    30    1
    10    30    23    1
    11    23    22    1
    12    22     1    1
    13     1     2    1
    14     2     3    1
    15     3     4    1
    16     4     7    1
    17     7     9    1
    18     9    10    1
    19    10    11   ar
    20    11    12   ar
    21    12    13   ar
    22    13    14   ar
    23    14    15   ar
    24    14    16    1
    25    16    17   am
    26    17    18    2
    27    17    19    1
    28    19    20    1
    29     4     5    1
    30     5     6    1
    31    30    31   am
    32    31    32    2
    33    31    33    1
    34    33    34    1
    35    29    24   ar
    36     6     1    1
    37    34    27    1
    38    15    10   ar
    39    20    13    1
    40     7     8    1
    41    16    21    1
@<TRIPOS>MOLECULE
*****
 37 41 0 0 0
SMALL
GASTEIGER

@<TRIPOS>ATOM
      1 N         138.4986  140.0046  164.2568 N.3     1  UNL1       -0.2711
      2 C         138.4992  141.2132  165.1452 C.3     1  UNL1        0.0735
      3 C         138.1941  142.5654  164.5721 C.3     1  UNL1        0.0331
      4 C         137.8884  142.7089  163.1106 C.3     1  UNL1        0.0570
      5 C         137.8879  141.5003  162.2222 C.3     1  UNL1        0.0331
      6 C         138.1930  140.1481  162.7953 C.3     1  UNL1        0.0735
      7 N         137.5833  144.0612  162.5375 N.3     1  UNL1       -0.2934
      8 H         136.8060  144.4414  163.0776 H       1  UNL1        0.1236
      9 C         138.6462  145.1191  162.5048 C.3     1  UNL1        0.1152
     10 C         140.0836  144.7326  162.3197 C.ar    1  UNL1        0.0765
     11 C         141.1277  145.2536  163.2622 C.ar    1  UNL1        0.0193
     12 C         142.5652  144.8671  163.0771 C.ar    1  UNL1        0.0411
     13 C         142.9586  143.9595  161.9494 C.ar    1  UNL1        0.1708
     14 C         141.9144  143.4385  161.0069 C.ar    1  UNL1        0.1682
     15 N         140.4770  143.8250  161.1920 N.ar    1  UNL1       -0.2304
     16 N         142.3078  142.5309  159.8792 N.am    1  UNL1       -0.2639
     17 C         143.7453  142.1444  159.6941 C.2     1  UNL1        0.2718
     18 O         144.1387  141.2368  158.5665 O.2     1  UNL1       -0.2707
     19 C         144.7894  142.6654  160.6367 C.3     1  UNL1        0.2898
     20 O         144.3960  143.5730  161.7643 O.3     1  UNL1       -0.4628
     21 H         141.6225  142.1890  159.2606 H       1  UNL1        0.1565
     22 C         138.8037  138.6523  164.8299 C.3     1  UNL1        0.0942
     23 C         140.2214  138.2705  165.1373 C.3     1  UNL1        0.1157
     24 C         142.4942  141.7661  166.8300 C.ar    1  UNL1        0.0362
     25 C         143.6212  142.3763  166.0505 C.ar    1  UNL1        0.0060
     26 C         143.9905  141.8213  164.7068 C.ar    1  UNL1        0.0383
     27 C         143.2329  140.6562  164.1426 C.ar    1  UNL1        0.1528
     28 C         142.1060  140.0460  164.9221 C.ar    1  UNL1        0.0882
     29 C         141.7366  140.6009  166.2658 C.ar    1  UNL1        0.0208
     30 N         141.3483  138.8807  164.3578 N.am    1  UNL1       -0.2515
     31 C         141.7176  138.3258  163.0141 C.2     1  UNL1        0.2740
     32 O         140.9601  137.1606  162.4499 O.2     1  UNL1       -0.2705
     33 C         142.8446  138.9360  162.2346 C.3     1  UNL1        0.2900
     34 O         143.6022  140.1012  162.7988 O.3     1  UNL1       -0.4643
     35 C         140.6816  142.4461  168.5626 C.3     1  UNL1        0.0773
     36 C         142.1249  142.3211  168.1738 C.2     1  UNL1        0.1735
     37 O         143.1988  142.7510  169.1286 O.2     1  UNL1       -0.2913
@<TRIPOS>BOND
     1    35    36    1
     2    36    37    2
     3    36    24    1
     4    24    25   ar
     5    25    26   ar
     6    26    27   ar
     7    27    28   ar
     8    28    29   ar
     9    28    30    1
    10    30    23    1
    11    23    22    1
    12    22     1    1
    13     1     2    1
    14     2     3    1
    15     3     4    1
    16     4     7    1
    17     7     9    1
    18     9    10    1
    19    10    11   ar
    20    11    12   ar
    21    12    13   ar
    22    13    14   ar
    23    14    15   ar
    24    14    16    1
    25    16    17   am
    26    17    18    2
    27    17    19    1
    28    19    20    1
    29     4     5    1
    30     5     6    1
    31    30    31   am
    32    31    32    2
    33    31    33    1
    34    33    34    1
    35    29    24   ar
    36     6     1    1
    37    34    27    1
    38    15    10   ar
    39    20    13    1
    40     7     8    1
    41    16    21    1
@<TRIPOS>MOLECULE
*****
 37 41 0 0 0
SMALL
GASTEIGER

@<TRIPOS>ATOM
      1 N         142.8424  138.4744  163.3895 N.3     1  UNL1       -0.2711
      2 C         142.4691  138.7037  161.9549 C.3     1  UNL1        0.0735
      3 C         141.0784  138.3975  161.4836 C.3     1  UNL1        0.0331
      4 C         140.0610  137.8620  162.4469 C.3     1  UNL1        0.0570
      5 C         140.4343  137.6326  163.8815 C.3     1  UNL1        0.0331
      6 C         141.8250  137.9388  164.3528 C.3     1  UNL1        0.0735
      7 N         138.6703  137.5557  161.9757 N.3     1  UNL1       -0.2934
      8 H         138.2367  136.9762  162.6944 H       1  UNL1        0.1236
      9 C         137.7134  138.6740  161.6856 C.3     1  UNL1        0.1152
     10 C         137.9423  140.0308  162.2827 C.ar    1  UNL1        0.0765
     11 C         137.7519  140.2440  163.7552 C.ar    1  UNL1        0.0193
     12 C         137.9808  141.6009  164.3523 C.ar    1  UNL1        0.0411
     13 C         138.4001  142.7445  163.4769 C.ar    1  UNL1        0.1708
     14 C         138.5906  142.5312  162.0044 C.ar    1  UNL1        0.1682
     15 N         138.3617  141.1744  161.4073 N.ar    1  UNL1       -0.2304
     16 N         139.0100  143.6748  161.1290 N.am    1  UNL1       -0.2639
     17 C         139.2389  145.0317  161.7262 C.2     1  UNL1        0.2718
     18 O         139.6582  146.1753  160.8508 O.2     1  UNL1       -0.2707
     19 C         139.0484  145.2449  163.1987 C.3     1  UNL1        0.2898
     20 O         138.6290  144.1013  164.0740 O.3     1  UNL1       -0.4628
     21 H         139.1350  143.5349  160.1626 H       1  UNL1        0.1565
     22 C         144.2332  138.7806  163.8607 C.3     1  UNL1        0.0942
     23 C         144.4866  139.9858  164.7170 C.3     1  UNL1        0.1157
     24 C         141.3958  140.8122  167.8815 C.ar    1  UNL1        0.0362
     25 C         140.5069  142.0148  167.7657 C.ar    1  UNL1        0.0060
     26 C         140.6482  142.9420  166.5951 C.ar    1  UNL1        0.0383
     27 C         141.6784  142.6665  165.5402 C.ar    1  UNL1        0.1528
     28 C         142.5674  141.4639  165.6561 C.ar    1  UNL1        0.0882
     29 C         142.4261  140.5367  166.8267 C.ar    1  UNL1        0.0208
     30 N         143.5977  141.1884  164.6012 N.am    1  UNL1       -0.2515
     31 C         143.7390  142.1156  163.4306 C.2     1  UNL1        0.2740
     32 O         144.7692  141.8401  162.3758 O.2     1  UNL1       -0.2705
     33 C         142.8500  143.3183  163.3148 C.3     1  UNL1        0.2900
     34 O         141.8197  143.5937  164.3696 O.3     1  UNL1       -0.4643
     35 C         142.4608  139.1852  169.6045 C.3     1  UNL1        0.0773
     36 C         141.2545  139.8850  169.0521 C.2     1  UNL1        0.1735
     37 O         139.9070  139.6577  169.6705 O.2     1  UNL1       -0.2913
@<TRIPOS>BOND
     1    35    36    1
     2    36    37    2
     3    36    24    1
     4    24    25   ar
     5    25    26   ar
     6    26    27   ar
     7    27    28   ar
     8    28    29   ar
     9    28    30    1
    10    30    23    1
    11    23    22    1
    12    22     1    1
    13     1     2    1
    14     2     3    1
    15     3     4    1
    16     4     7    1
    17     7     9    1
    18     9    10    1
    19    10    11   ar
    20    11    12   ar
    21    12    13   ar
    22    13    14   ar
    23    14    15   ar
    24    14    16    1
    25    16    17   am
    26    17    18    2
    27    17    19    1
    28    19    20    1
    29     4     5    1
    30     5     6    1
    31    30    31   am
    32    31    32    2
    33    31    33    1
    34    33    34    1
    35    29    24   ar
    36     6     1    1
    37    34    27    1
    38    15    10   ar
    39    20    13    1
    40     7     8    1
    41    16    21    1
@<TRIPOS>MOLECULE
*****
 37 41 0 0 0
SMALL
GASTEIGER

@<TRIPOS>ATOM
      1 N         139.0173  143.1158  162.5595 N.3     1  UNL1       -0.2711
      2 C         139.6784  143.5047  161.2704 C.3     1  UNL1        0.0735
      3 C         140.9922  144.2281  161.2898 C.3     1  UNL1        0.0331
      4 C         141.6449  144.5627  162.5982 C.3     1  UNL1        0.0570
      5 C         140.9838  144.1739  163.8872 C.3     1  UNL1        0.0331
      6 C         139.6700  143.4504  163.8679 C.3     1  UNL1        0.0735
      7 N         142.9588  145.2863  162.6176 N.3     1  UNL1       -0.2934
      8 H         142.8999  145.9839  163.3594 H       1  UNL1        0.1236
      9 C         144.2315  144.5241  162.8400 C.3     1  UNL1        0.1152
     10 C         144.2325  143.0263  162.7596 C.ar    1  UNL1        0.0765
     11 C         144.5864  142.2106  163.9676 C.ar    1  UNL1        0.0193
     12 C         144.5874  140.7127  163.8872 C.ar    1  UNL1        0.0411
     13 C         144.2346  140.0306  162.5987 C.ar    1  UNL1        0.1708
     14 C         143.8807  140.8463  161.3907 C.ar    1  UNL1        0.1682
     15 N         143.8796  142.3442  161.4711 N.ar    1  UNL1       -0.2304
     16 N         143.5278  140.1642  160.1022 N.am    1  UNL1       -0.2639
     17 C         143.5289  138.6663  160.0218 C.2     1  UNL1        0.2718
     18 O         143.1760  137.9842  158.7333 O.2     1  UNL1       -0.2707
     19 C         143.8828  137.8506  161.2298 C.3     1  UNL1        0.2898
     20 O         144.2356  138.5328  162.5183 O.3     1  UNL1       -0.4628
     21 H         143.2955  140.6996  159.3093 H       1  UNL1        0.1565
     22 C         137.7034  142.3923  162.5401 C.3     1  UNL1        0.0942
     23 C         137.5737  141.0550  163.2071 C.3     1  UNL1        0.1157
     24 C         140.8555  139.5673  165.9027 C.ar    1  UNL1        0.0362
     25 C         141.7237  138.4244  165.4669 C.ar    1  UNL1        0.0060
     26 C         141.4980  137.7774  164.1326 C.ar    1  UNL1        0.0383
     27 C         140.4041  138.2733  163.2341 C.ar    1  UNL1        0.1528
     28 C         139.5359  139.4162  163.6699 C.ar    1  UNL1        0.0882
     29 C         139.7616  140.0632  165.0042 C.ar    1  UNL1        0.0208
     30 N         138.4419  139.9121  162.7713 N.am    1  UNL1       -0.2515
     31 C         138.2162  139.2651  161.4370 C.2     1  UNL1        0.2740
     32 O         137.1223  139.7610  160.5385 O.2     1  UNL1       -0.2705
     33 C         139.0844  138.1222  161.0012 C.3     1  UNL1        0.2900
     34 O         140.1784  137.6263  161.8998 O.3     1  UNL1       -0.4643
     35 C         140.0474  140.0877  168.3165 C.3     1  UNL1        0.0773
     36 C         141.0812  140.2143  167.2371 C.2     1  UNL1        0.1735
     37 O         142.3407  140.9880  167.4920 O.2     1  UNL1       -0.2913
@<TRIPOS>BOND
     1    35    36    1
     2    36    37    2
     3    36    24    1
     4    24    25   ar
     5    25    26   ar
     6    26    27   ar
     7    27    28   ar
     8    28    29   ar
     9    28    30    1
    10    30    23    1
    11    23    22    1
    12    22     1    1
    13     1     2    1
    14     2     3    1
    15     3     4    1
    16     4     7    1
    17     7     9    1
    18     9    10    1
    19    10    11   ar
    20    11    12   ar
    21    12    13   ar
    22    13    14   ar
    23    14    15   ar
    24    14    16    1
    25    16    17   am
    26    17    18    2
    27    17    19    1
    28    19    20    1
    29     4     5    1
    30     5     6    1
    31    30    31   am
    32    31    32    2
    33    31    33    1
    34    33    34    1
    35    29    24   ar
    36     6     1    1
    37    34    27    1
    38    15    10   ar
    39    20    13    1
    40     7     8    1
    41    16    21    1
@<TRIPOS>MOLECULE
*****
 37 41 0 0 0
SMALL
GASTEIGER

@<TRIPOS>ATOM
      1 N         141.1955  137.8732  161.9069 N.3     1  UNL1       -0.2711
      2 C         141.8507  137.6214  163.2325 C.3     1  UNL1        0.0735
      3 C         141.0100  137.4134  164.4572 C.3     1  UNL1        0.0331
      4 C         139.5141  137.4572  164.3563 C.3     1  UNL1        0.0570
      5 C         138.8589  137.7090  163.0307 C.3     1  UNL1        0.0331
      6 C         139.6995  137.9170  161.8060 C.3     1  UNL1        0.0735
      7 N         138.6734  137.2492  165.5810 N.3     1  UNL1       -0.2934
      8 H         139.2722  136.8056  166.2775 H       1  UNL1        0.1236
      9 C         138.0236  138.4225  166.2528 C.3     1  UNL1        0.1152
     10 C         138.5651  139.8046  166.0373 C.ar    1  UNL1        0.0765
     11 C         139.6554  140.3295  166.9237 C.ar    1  UNL1        0.0193
     12 C         140.1969  141.7117  166.7083 C.ar    1  UNL1        0.0411
     13 C         139.6482  142.5689  165.6064 C.ar    1  UNL1        0.1708
     14 C         138.5579  142.0438  164.7199 C.ar    1  UNL1        0.1682
     15 N         138.0164  140.6617  164.9354 N.ar    1  UNL1       -0.2304
     16 N         138.0092  142.9010  163.6180 N.am    1  UNL1       -0.2639
     17 C         138.5508  144.2832  163.4025 C.2     1  UNL1        0.2718
     18 O         138.0021  145.1403  162.3006 O.2     1  UNL1       -0.2707
     19 C         139.6410  144.8081  164.2889 C.3     1  UNL1        0.2898
     20 O         140.1897  143.9510  165.3909 O.3     1  UNL1       -0.4628
     21 H         137.2937  142.5564  163.0362 H       1  UNL1        0.1565
     22 C         142.0362  138.0812  160.6821 C.3     1  UNL1        0.0942
     23 C         143.4371  138.6011  160.8135 C.3     1  UNL1        0.1157
     24 C         143.7977  141.8303  163.9268 C.ar    1  UNL1        0.0362
     25 C         144.1174  143.2367  163.5149 C.ar    1  UNL1        0.0060
     26 C         144.3169  143.5668  162.0654 C.ar    1  UNL1        0.0383
     27 C         144.1967  142.4904  161.0276 C.ar    1  UNL1        0.1528
     28 C         143.8770  141.0840  161.4395 C.ar    1  UNL1        0.0882
     29 C         143.6775  140.7539  162.8890 C.ar    1  UNL1        0.0208
     30 N         143.7568  140.0075  160.4017 N.am    1  UNL1       -0.2515
     31 C         143.9563  140.3376  158.9521 C.2     1  UNL1        0.2740
     32 O         143.8361  139.2612  157.9144 O.2     1  UNL1       -0.2705
     33 C         144.2761  141.7441  158.5403 C.3     1  UNL1        0.2900
     34 O         144.3962  142.8205  159.5781 O.3     1  UNL1       -0.4643
     35 C         143.3137  140.0872  165.7915 C.3     1  UNL1        0.0773
     36 C         143.5982  141.5002  165.3763 C.2     1  UNL1        0.1735
     37 O         143.6831  142.5831  166.4107 O.2     1  UNL1       -0.2913
@<TRIPOS>BOND
     1    35    36    1
     2    36    37    2
     3    36    24    1
     4    24    25   ar
     5    25    26   ar
     6    26    27   ar
     7    27    28   ar
     8    28    29   ar
     9    28    30    1
    10    30    23    1
    11    23    22    1
    12    22     1    1
    13     1     2    1
    14     2     3    1
    15     3     4    1
    16     4     7    1
    17     7     9    1
    18     9    10    1
    19    10    11   ar
    20    11    12   ar
    21    12    13   ar
    22    13    14   ar
    23    14    15   ar
    24    14    16    1
    25    16    17   am
    26    17    18    2
    27    17    19    1
    28    19    20    1
    29     4     5    1
    30     5     6    1
    31    30    31   am
    32    31    32    2
    33    31    33    1
    34    33    34    1
    35    29    24   ar
    36     6     1    1
    37    34    27    1
    38    15    10   ar
    39    20    13    1
    40     7     8    1
    41    16    21    1
