@<TRIPOS>MOLECULE
*****
 25 28 0 0 0
SMALL
GASTEIGER

@<TRIPOS>ATOM
      1 C         139.5816  142.1280  164.3400 C.ar    1  UNL1        0.0820
      2 C         140.5788  143.0291  165.0062 C.ar    1  UNL1        0.0772
      3 C         141.2460  144.2193  164.3829 C.3     1  UNL1        0.0537
      4 N         140.7918  142.5310  166.4049 N.ar    1  UNL1       -0.2282
      5 C         139.9261  141.3221  166.6032 C.ar    1  UNL1        0.1796
      6 C         139.7223  140.4159  167.7810 C.ar    1  UNL1        0.1667
      7 N         138.7706  139.2607  167.6827 N.ar    1  UNL1       -0.2245
      8 C         138.0227  139.0117  166.4065 C.ar    1  UNL1        0.1194
      9 C         138.2265  139.9179  165.2287 C.ar    1  UNL1        0.1023
     10 N         139.1782  141.0731  165.3271 N.ar    1  UNL1       -0.2854
     11 N         140.4702  140.6649  169.0573 N.pl3   1  UNL1       -0.2857
     12 C         141.7288  139.9031  169.3499 C.3     1  UNL1        0.1243
     13 C         142.4767  140.1522  170.6261 C.3     1  UNL1        0.1636
     14 O         141.9660  141.1631  171.6096 O.3     1  UNL1       -0.3501
     15 C         140.7074  141.9249  171.3169 C.3     1  UNL1        0.1636
     16 C         139.9595  141.6758  170.0408 C.3     1  UNL1        0.1243
     17 N         138.8263  141.9810  160.5356 N.ar    1  UNL1       -0.2468
     18 C         139.6324  141.5601  161.7284 C.ar    1  UNL1        0.0982
     19 C         139.0765  142.2590  162.9337 C.ar    1  UNL1        0.0569
     20 C         137.9266  143.1117  162.4857 C.ar    1  UNL1        0.1231
     21 N         137.7720  142.9399  161.0036 N.ar    1  UNL1       -0.1675
     22 C         139.0373  141.5233  159.1229 C.3     1  UNL1        0.1594
     23 C         138.3365  140.2963  158.6194 C.3     1  UNL1        0.1685
     24 C         137.0308  141.6275  156.8103 C.3     1  UNL1        0.1742
     25 O         137.1557  140.4294  157.7041 O.3     1  UNL1       -0.3490
@<TRIPOS>BOND
     1    24    25    1
     2    25    23    1
     3    23    22    1
     4    22    17    1
     5    17    18   ar
     6    18    19   ar
     7    19     1    1
     8     1     2   ar
     9     2     3    1
    10     2     4   ar
    11     4     5   ar
    12     5     6   ar
    13     6    11    1
    14    11    12    1
    15    12    13    1
    16    13    14    1
    17    14    15    1
    18    15    16    1
    19     6     7   ar
    20     7     8   ar
    21     8     9   ar
    22     9    10   ar
    23    19    20   ar
    24    20    21   ar
    25    21    17   ar
    26    10     1   ar
    27    10     5   ar
    28    16    11    1
@<TRIPOS>MOLECULE
*****
 25 28 0 0 0
SMALL
GASTEIGER

@<TRIPOS>ATOM
      1 C         140.3173  139.6497  164.3805 C.ar    1  UNL1        0.0820
      2 C         139.4311  140.6460  165.0676 C.ar    1  UNL1        0.0772
      3 C         138.2114  141.2929  164.4812 C.3     1  UNL1        0.0537
      4 N         139.9788  140.8819  166.4439 N.ar    1  UNL1       -0.2282
      5 C         141.2035  140.0312  166.6075 C.ar    1  UNL1        0.1796
      6 C         142.1552  139.8517  167.7529 C.ar    1  UNL1        0.1667
      7 N         143.3161  138.9108  167.6231 N.ar    1  UNL1       -0.2245
      8 C         143.5252  138.1493  166.3478 C.ar    1  UNL1        0.1194
      9 C         142.5735  138.3288  165.2024 C.ar    1  UNL1        0.1023
     10 N         141.4127  139.2697  165.3322 N.ar    1  UNL1       -0.2854
     11 N         141.9461  140.6133  169.0282 N.pl3   1  UNL1       -0.2857
     12 C         140.9811  140.1029  170.0569 C.3     1  UNL1        0.1243
     13 C         140.7719  140.8644  171.3322 C.3     1  UNL1        0.1636
     14 O         141.5277  142.1364  171.5787 O.3     1  UNL1       -0.3501
     15 C         142.4927  142.6469  170.5499 C.3     1  UNL1        0.1636
     16 C         142.7018  141.8853  169.2747 C.3     1  UNL1        0.1243
     17 N         140.4904  138.6739  160.6277 N.ar    1  UNL1       -0.2468
     18 C         141.0458  139.3923  161.8215 C.ar    1  UNL1        0.0982
     19 C         140.1393  139.1253  162.9865 C.ar    1  UNL1        0.0569
     20 C         139.0235  138.2419  162.5125 C.ar    1  UNL1        0.1231
     21 N         139.2405  137.9629  161.0547 N.ar    1  UNL1       -0.1675
     22 C         141.0810  138.6676  159.2489 C.3     1  UNL1        0.1594
     23 C         142.4227  138.0406  159.0106 C.3     1  UNL1        0.1685
     24 C         143.5717  140.3654  159.1694 C.3     1  UNL1        0.1742
     25 O         143.6681  138.8693  159.1213 O.3     1  UNL1       -0.3490
@<TRIPOS>BOND
     1    24    25    1
     2    25    23    1
     3    23    22    1
     4    22    17    1
     5    17    18   ar
     6    18    19   ar
     7    19     1    1
     8     1     2   ar
     9     2     3    1
    10     2     4   ar
    11     4     5   ar
    12     5     6   ar
    13     6    11    1
    14    11    12    1
    15    12    13    1
    16    13    14    1
    17    14    15    1
    18    15    16    1
    19     6     7   ar
    20     7     8   ar
    21     8     9   ar
    22     9    10   ar
    23    19    20   ar
    24    20    21   ar
    25    21    17   ar
    26    10     1   ar
    27    10     5   ar
    28    16    11    1
@<TRIPOS>MOLECULE
*****
 25 28 0 0 0
SMALL
GASTEIGER

@<TRIPOS>ATOM
      1 C         139.0067  140.0416  164.6147 C.ar    1  UNL1        0.0820
      2 C         139.5764  139.0404  163.6539 C.ar    1  UNL1        0.0772
      3 C         140.1215  137.6888  164.0090 C.3     1  UNL1        0.0537
      4 N         139.5054  139.6282  162.2757 N.ar    1  UNL1       -0.2282
      5 C         138.8917  140.9926  162.3848 C.ar    1  UNL1        0.1796
      6 C         138.5737  142.0354  161.3545 C.ar    1  UNL1        0.1667
      7 N         137.9476  143.3336  161.7698 N.ar    1  UNL1       -0.2245
      8 C         137.6394  143.5891  163.2154 C.ar    1  UNL1        0.1194
      9 C         137.9574  142.5463  164.2456 C.ar    1  UNL1        0.1023
     10 N         138.5835  141.2481  163.8304 N.ar    1  UNL1       -0.2854
     11 N         138.8819  141.7799  159.9089 N.pl3   1  UNL1       -0.2857
     12 C         139.9192  142.6045  159.2060 C.3     1  UNL1        0.1243
     13 C         140.2274  142.3490  157.7604 C.3     1  UNL1        0.1636
     14 O         139.4982  141.2689  157.0176 O.3     1  UNL1       -0.3501
     15 C         138.4609  140.4443  157.7205 C.3     1  UNL1        0.1636
     16 C         138.1527  140.6998  159.1661 C.3     1  UNL1        0.1243
     17 N         139.2285  140.1097  168.4893 N.ar    1  UNL1       -0.2468
     18 C         139.6796  140.5920  167.1425 C.ar    1  UNL1        0.0982
     19 C         138.8821  139.8669  166.0993 C.ar    1  UNL1        0.0569
     20 C         137.9379  138.9364  166.8014 C.ar    1  UNL1        0.1231
     21 N         138.1521  139.0865  168.2785 N.ar    1  UNL1       -0.1675
     22 C         139.7603  140.5698  169.8141 C.3     1  UNL1        0.1594
     23 C         139.9195  142.0355  170.0904 C.3     1  UNL1        0.1685
     24 C         142.3510  142.9281  170.2920 C.3     1  UNL1        0.1742
     25 O         141.0595  142.5198  170.9364 O.3     1  UNL1       -0.3490
@<TRIPOS>BOND
     1    24    25    1
     2    25    23    1
     3    23    22    1
     4    22    17    1
     5    17    18   ar
     6    18    19   ar
     7    19     1    1
     8     1     2   ar
     9     2     3    1
    10     2     4   ar
    11     4     5   ar
    12     5     6   ar
    13     6    11    1
    14    11    12    1
    15    12    13    1
    16    13    14    1
    17    14    15    1
    18    15    16    1
    19     6     7   ar
    20     7     8   ar
    21     8     9   ar
    22     9    10   ar
    23    19    20   ar
    24    20    21   ar
    25    21    17   ar
    26    10     1   ar
    27    10     5   ar
    28    16    11    1
@<TRIPOS>MOLECULE
*****
 25 28 0 0 0
SMALL
GASTEIGER

@<TRIPOS>ATOM
      1 C         140.4735  139.8868  165.2631 C.ar    1  UNL1        0.0820
      2 C         139.6266  139.9538  164.0269 C.ar    1  UNL1        0.0772
      3 C         138.1481  140.2034  163.9835 C.3     1  UNL1        0.0537
      4 N         140.5177  139.7274  162.8417 N.ar    1  UNL1       -0.2282
      5 C         141.9154  139.5204  163.3455 C.ar    1  UNL1        0.1796
      6 C         143.2094  139.2550  162.6348 C.ar    1  UNL1        0.1667
      7 N         144.4761  139.0881  163.4207 N.ar    1  UNL1       -0.2245
      8 C         144.4488  139.1866  164.9171 C.ar    1  UNL1        0.1194
      9 C         143.1547  139.4520  165.6278 C.ar    1  UNL1        0.1023
     10 N         141.8880  139.6189  164.8420 N.ar    1  UNL1       -0.2854
     11 N         143.2367  139.1565  161.1383 N.pl3   1  UNL1       -0.2857
     12 C         142.7353  137.9167  160.4590 C.3     1  UNL1        0.1243
     13 C         142.7626  137.8181  158.9624 C.3     1  UNL1        0.1636
     14 O         143.2913  138.9595  158.1452 O.3     1  UNL1       -0.3501
     15 C         143.7927  140.1993  158.8246 C.3     1  UNL1        0.1636
     16 C         143.7654  140.2978  160.3211 C.3     1  UNL1        0.1243
     17 N         139.7715  140.8446  168.9584 N.ar    1  UNL1       -0.2468
     18 C         140.5544  141.0060  167.6892 C.ar    1  UNL1        0.0982
     19 C         139.9907  140.0576  166.6729 C.ar    1  UNL1        0.0569
     20 C         138.8593  139.3100  167.3141 C.ar    1  UNL1        0.1231
     21 N         138.7239  139.7964  168.7267 N.ar    1  UNL1       -0.1675
     22 C         139.9967  141.5989  170.2352 C.3     1  UNL1        0.1594
     23 C         140.0602  143.0974  170.2198 C.3     1  UNL1        0.1685
     24 C         142.6547  142.9884  170.3023 C.3     1  UNL1        0.1742
     25 O         141.3893  143.7921  170.2490 O.3     1  UNL1       -0.3490
@<TRIPOS>BOND
     1    24    25    1
     2    25    23    1
     3    23    22    1
     4    22    17    1
     5    17    18   ar
     6    18    19   ar
     7    19     1    1
     8     1     2   ar
     9     2     3    1
    10     2     4   ar
    11     4     5   ar
    12     5     6   ar
    13     6    11    1
    14    11    12    1
    15    12    13    1
    16    13    14    1
    17    14    15    1
    18    15    16    1
    19     6     7   ar
    20     7     8   ar
    21     8     9   ar
    22     9    10   ar
    23    19    20   ar
    24    20    21   ar
    25    21    17   ar
    26    10     1   ar
    27    10     5   ar
    28    16    11    1
@<TRIPOS>MOLECULE
*****
 25 28 0 0 0
SMALL
GASTEIGER

@<TRIPOS>ATOM
      1 C         139.7782  142.5693  163.9696 C.ar    1  UNL1        0.0820
      2 C         139.5434  143.4520  165.1595 C.ar    1  UNL1        0.0772
      3 C         138.9305  144.8209  165.1345 C.3     1  UNL1        0.0537
      4 N         140.0289  142.7254  166.3786 N.ar    1  UNL1       -0.2282
      5 C         140.5638  141.3936  165.9421 C.ar    1  UNL1        0.1796
      6 C         141.1720  140.2564  166.7081 C.ar    1  UNL1        0.1667
      7 N         141.6252  139.0227  165.9853 N.ar    1  UNL1       -0.2245
      8 C         141.4702  138.9262  164.4965 C.ar    1  UNL1        0.1194
      9 C         140.8620  140.0635  163.7305 C.ar    1  UNL1        0.1023
     10 N         140.4089  141.2972  164.4533 N.ar    1  UNL1       -0.2854
     11 N         141.3270  140.3529  168.1970 N.pl3   1  UNL1       -0.2857
     12 C         142.6775  140.6144  168.7951 C.3     1  UNL1        0.1243
     13 C         142.8325  140.7110  170.2840 C.3     1  UNL1        0.1636
     14 O         141.6369  140.5459  171.1748 O.3     1  UNL1       -0.3501
     15 C         140.2864  140.2843  170.5766 C.3     1  UNL1        0.1636
     16 C         140.1315  140.1878  169.0878 C.3     1  UNL1        0.1243
     17 N         139.5851  143.7547  160.2786 N.ar    1  UNL1       -0.2468
     18 C         140.3143  143.6525  161.5854 C.ar    1  UNL1        0.0982
     19 C         139.4414  142.9005  162.5459 C.ar    1  UNL1        0.0569
     20 C         138.1726  142.5380  161.8327 C.ar    1  UNL1        0.1231
     21 N         138.2614  143.0659  160.4315 N.ar    1  UNL1       -0.1675
     22 C         140.0906  144.4275  159.0371 C.3     1  UNL1        0.1594
     23 C         141.3532  145.2361  159.0833 C.3     1  UNL1        0.1685
     24 C         142.9669  143.2083  158.8998 C.3     1  UNL1        0.1742
     25 O         142.6427  144.6417  158.5997 O.3     1  UNL1       -0.3490
@<TRIPOS>BOND
     1    24    25    1
     2    25    23    1
     3    23    22    1
     4    22    17    1
     5    17    18   ar
     6    18    19   ar
     7    19     1    1
     8     1     2   ar
     9     2     3    1
    10     2     4   ar
    11     4     5   ar
    12     5     6   ar
    13     6    11    1
    14    11    12    1
    15    12    13    1
    16    13    14    1
    17    14    15    1
    18    15    16    1
    19     6     7   ar
    20     7     8   ar
    21     8     9   ar
    22     9    10   ar
    23    19    20   ar
    24    20    21   ar
    25    21    17   ar
    26    10     1   ar
    27    10     5   ar
    28    16    11    1
@<TRIPOS>MOLECULE
*****
 25 28 0 0 0
SMALL
GASTEIGER

@<TRIPOS>ATOM
      1 C         141.2084  139.4985  164.3957 C.ar    1  UNL1        0.0820
      2 C         142.2990  140.3371  164.9936 C.ar    1  UNL1        0.0772
      3 C         143.5583  140.7691  164.3026 C.3     1  UNL1        0.0537
      4 N         141.9091  140.6677  166.4038 N.ar    1  UNL1       -0.2282
      5 C         140.5776  140.0335  166.6774 C.ar    1  UNL1        0.1796
      6 C         139.7035  140.0206  167.8964 C.ar    1  UNL1        0.1667
      7 N         138.3964  139.2851  167.8743 N.ar    1  UNL1       -0.2245
      8 C         137.9634  138.5625  166.6332 C.ar    1  UNL1        0.1194
      9 C         138.8375  138.5754  165.4142 C.ar    1  UNL1        0.1023
     10 N         140.1446  139.3109  165.4364 N.ar    1  UNL1       -0.2854
     11 N         140.1366  140.7432  169.1375 N.pl3   1  UNL1       -0.2857
     12 C         140.6656  139.9706  170.3092 C.3     1  UNL1        0.1243
     13 C         141.0987  140.6932  171.5504 C.3     1  UNL1        0.1636
     14 O         141.0028  142.1886  171.6196 O.3     1  UNL1       -0.3501
     15 C         140.4738  142.9612  170.4477 C.3     1  UNL1        0.1636
     16 C         140.0407  142.2386  169.2067 C.3     1  UNL1        0.1243
     17 N         140.5581  138.5232  160.6955 N.ar    1  UNL1       -0.2468
     18 C         140.2136  139.3159  161.9214 C.ar    1  UNL1        0.0982
     19 C         141.1857  138.9448  163.0018 C.ar    1  UNL1        0.0569
     20 C         142.1311  137.9226  162.4437 C.ar    1  UNL1        0.1231
     21 N         141.7432  137.6621  161.0182 N.ar    1  UNL1       -0.1675
     22 C         139.8432  138.5813  159.3782 C.3     1  UNL1        0.1594
     23 C         138.7671  139.6017  159.1533 C.3     1  UNL1        0.1685
     24 C         137.6714  141.2061  157.4283 C.3     1  UNL1        0.1742
     25 O         138.2676  139.8714  157.7648 O.3     1  UNL1       -0.3490
@<TRIPOS>BOND
     1    24    25    1
     2    25    23    1
     3    23    22    1
     4    22    17    1
     5    17    18   ar
     6    18    19   ar
     7    19     1    1
     8     1     2   ar
     9     2     3    1
    10     2     4   ar
    11     4     5   ar
    12     5     6   ar
    13     6    11    1
    14    11    12    1
    15    12    13    1
    16    13    14    1
    17    14    15    1
    18    15    16    1
    19     6     7   ar
    20     7     8   ar
    21     8     9   ar
    22     9    10   ar
    23    19    20   ar
    24    20    21   ar
    25    21    17   ar
    26    10     1   ar
    27    10     5   ar
    28    16    11    1
@<TRIPOS>MOLECULE
*****
 25 28 0 0 0
SMALL
GASTEIGER

@<TRIPOS>ATOM
      1 C         140.8744  139.3884  164.5122 C.ar    1  UNL1        0.0820
      2 C         139.8816  138.9114  165.5304 C.ar    1  UNL1        0.0772
      3 C         138.8257  137.8687  165.3113 C.3     1  UNL1        0.0537
      4 N         140.1300  139.6602  166.8062 N.ar    1  UNL1       -0.2282
      5 C         141.2764  140.5999  166.5764 C.ar    1  UNL1        0.1796
      6 C         141.9608  141.5868  167.4750 C.ar    1  UNL1        0.1667
      7 N         143.1053  142.4058  166.9559 N.ar    1  UNL1       -0.2245
      8 C         143.5653  142.2378  165.5382 C.ar    1  UNL1        0.1194
      9 C         142.8809  141.2508  164.6395 C.ar    1  UNL1        0.1023
     10 N         141.7365  140.4319  165.1586 N.ar    1  UNL1       -0.2854
     11 N         141.5007  141.7548  168.8929 N.pl3   1  UNL1       -0.2857
     12 C         140.3838  142.7039  169.2114 C.3     1  UNL1        0.1243
     13 C         139.9237  142.8719  170.6293 C.3     1  UNL1        0.1636
     14 O         140.5805  142.0907  171.7284 O.3     1  UNL1       -0.3501
     15 C         141.6975  141.1415  171.4098 C.3     1  UNL1        0.1636
     16 C         142.1576  140.9736  169.9921 C.3     1  UNL1        0.1243
     17 N         141.8914  138.0476  161.0145 N.ar    1  UNL1       -0.2468
     18 C         142.2393  138.4335  162.4215 C.ar    1  UNL1        0.0982
     19 C         140.9857  138.9064  163.0961 C.ar    1  UNL1        0.0569
     20 C         139.8630  138.8127  162.1058 C.ar    1  UNL1        0.1231
     21 N         140.4227  138.2819  160.8193 N.ar    1  UNL1       -0.1675
     22 C         142.8446  137.5199  159.9836 C.3     1  UNL1        0.1594
     23 C         142.8153  138.0648  158.5864 C.3     1  UNL1        0.1685
     24 C         143.2741  137.7484  156.0488 C.3     1  UNL1        0.1742
     25 O         143.1335  137.1697  157.4255 O.3     1  UNL1       -0.3490
@<TRIPOS>BOND
     1    24    25    1
     2    25    23    1
     3    23    22    1
     4    22    17    1
     5    17    18   ar
     6    18    19   ar
     7    19     1    1
     8     1     2   ar
     9     2     3    1
    10     2     4   ar
    11     4     5   ar
    12     5     6   ar
    13     6    11    1
    14    11    12    1
    15    12    13    1
    16    13    14    1
    17    14    15    1
    18    15    16    1
    19     6     7   ar
    20     7     8   ar
    21     8     9   ar
    22     9    10   ar
    23    19    20   ar
    24    20    21   ar
    25    21    17   ar
    26    10     1   ar
    27    10     5   ar
    28    16    11    1
@<TRIPOS>MOLECULE
*****
 25 28 0 0 0
SMALL
GASTEIGER

@<TRIPOS>ATOM
      1 C         140.2883  143.9256  163.7847 C.ar    1  UNL1        0.0820
      2 C         139.2073  143.7178  164.8038 C.ar    1  UNL1        0.0772
      3 C         137.7646  144.0985  164.6489 C.3     1  UNL1        0.0537
      4 N         139.8223  143.0626  166.0048 N.ar    1  UNL1       -0.2282
      5 C         141.2833  142.8655  165.7280 C.ar    1  UNL1        0.1796
      6 C         142.3887  142.2692  166.5481 C.ar    1  UNL1        0.1667
      7 N         143.7820  142.2062  165.9962 N.ar    1  UNL1       -0.2245
      8 C         144.0700  142.7396  164.6242 C.ar    1  UNL1        0.1194
      9 C         142.9646  143.3359  163.8041 C.ar    1  UNL1        0.1023
     10 N         141.5713  143.3988  164.3560 N.ar    1  UNL1       -0.2854
     11 N         142.1006  141.7358  167.9202 N.pl3   1  UNL1       -0.2857
     12 C         142.4062  142.5701  169.1287 C.3     1  UNL1        0.1243
     13 C         142.1182  142.0367  170.5008 C.3     1  UNL1        0.1636
     14 O         141.5245  140.6690  170.6644 O.3     1  UNL1       -0.3501
     15 C         141.2189  139.8346  169.4558 C.3     1  UNL1        0.1636
     16 C         141.5070  140.3680  168.0838 C.3     1  UNL1        0.1243
     17 N         140.0706  144.8718  160.0267 N.ar    1  UNL1       -0.2468
     18 C         140.3692  143.8818  161.1132 C.ar    1  UNL1        0.0982
     19 C         140.1164  144.5505  162.4320 C.ar    1  UNL1        0.0569
     20 C         139.6615  145.9539  162.1604 C.ar    1  UNL1        0.1231
     21 N         139.6333  146.1524  160.6738 N.ar    1  UNL1       -0.1675
     22 C         140.1886  144.6247  158.5519 C.3     1  UNL1        0.1594
     23 C         140.5499  145.7508  157.6293 C.3     1  UNL1        0.1685
     24 C         139.0894  147.3613  156.2069 C.3     1  UNL1        0.1742
     25 O         139.7202  146.0153  156.4080 O.3     1  UNL1       -0.3490
@<TRIPOS>BOND
     1    24    25    1
     2    25    23    1
     3    23    22    1
     4    22    17    1
     5    17    18   ar
     6    18    19   ar
     7    19     1    1
     8     1     2   ar
     9     2     3    1
    10     2     4   ar
    11     4     5   ar
    12     5     6   ar
    13     6    11    1
    14    11    12    1
    15    12    13    1
    16    13    14    1
    17    14    15    1
    18    15    16    1
    19     6     7   ar
    20     7     8   ar
    21     8     9   ar
    22     9    10   ar
    23    19    20   ar
    24    20    21   ar
    25    21    17   ar
    26    10     1   ar
    27    10     5   ar
    28    16    11    1
@<TRIPOS>MOLECULE
*****
 25 28 0 0 0
SMALL
GASTEIGER

@<TRIPOS>ATOM
      1 C         139.5829  140.7905  164.2038 C.ar    1  UNL1        0.0820
      2 C         140.5115  140.1488  163.2159 C.ar    1  UNL1        0.0772
      3 C         141.2498  138.8575  163.4099 C.3     1  UNL1        0.0537
      4 N         140.5721  141.0250  161.9999 N.ar    1  UNL1       -0.2282
      5 C         139.6809  142.2082  162.2364 C.ar    1  UNL1        0.1796
      6 C         139.3472  143.3989  161.3874 C.ar    1  UNL1        0.1667
      7 N         138.4021  144.4447  161.9004 N.ar    1  UNL1       -0.2245
      8 C         137.7907  144.2997  163.2624 C.ar    1  UNL1        0.1194
      9 C         138.1245  143.1090  164.1114 C.ar    1  UNL1        0.1023
     10 N         139.0696  142.0633  163.5984 N.ar    1  UNL1       -0.2854
     11 N         139.9585  143.5439  160.0253 N.pl3   1  UNL1       -0.2857
     12 C         139.2346  143.0235  158.8190 C.3     1  UNL1        0.1243
     13 C         139.8460  143.1684  157.4569 C.3     1  UNL1        0.1636
     14 O         141.1813  143.8338  157.3011 O.3     1  UNL1       -0.3501
     15 C         141.9053  144.3541  158.5075 C.3     1  UNL1        0.1636
     16 C         141.2939  144.2092  159.8695 C.3     1  UNL1        0.1243
     17 N         139.1287  139.9419  167.9641 N.ar    1  UNL1       -0.2468
     18 C         139.7382  140.7704  166.8723 C.ar    1  UNL1        0.0982
     19 C         139.2296  140.2536  165.5591 C.ar    1  UNL1        0.0569
     20 C         138.3056  139.1057  165.8394 C.ar    1  UNL1        0.1231
     21 N         138.2432  138.9131  167.3257 N.ar    1  UNL1       -0.1675
     22 C         139.3633  140.1124  169.4357 C.3     1  UNL1        0.1594
     23 C         138.1977  140.2428  170.3708 C.3     1  UNL1        0.1685
     24 C         136.2221  138.7923  171.2327 C.3     1  UNL1        0.1742
     25 O         137.6966  139.0418  171.1168 O.3     1  UNL1       -0.3490
@<TRIPOS>BOND
     1    24    25    1
     2    25    23    1
     3    23    22    1
     4    22    17    1
     5    17    18   ar
     6    18    19   ar
     7    19     1    1
     8     1     2   ar
     9     2     3    1
    10     2     4   ar
    11     4     5   ar
    12     5     6   ar
    13     6    11    1
    14    11    12    1
    15    12    13    1
    16    13    14    1
    17    14    15    1
    18    15    16    1
    19     6     7   ar
    20     7     8   ar
    21     8     9   ar
    22     9    10   ar
    23    19    20   ar
    24    20    21   ar
    25    21    17   ar
    26    10     1   ar
    27    10     5   ar
    28    16    11    1
