@<TRIPOS>MOLECULE
*****
 39 44 0 0 0
SMALL
GASTEIGER

@<TRIPOS>ATOM
      1 C         142.3573  144.0294  157.4921 C.3     1  UNL1        0.0832
      2 C         142.8839  144.1142  156.0902 C.3     1  UNL1        0.0374
      3 C         142.2959  145.1020  155.1267 C.3     1  UNL1        0.0738
      4 N         141.1813  146.0050  155.5650 N.3     1  UNL1       -0.2734
      5 C         140.6547  145.9202  156.9670 C.3     1  UNL1        0.0828
      6 C         141.2427  144.9324  157.9305 C.3     1  UNL1        0.1103
      7 O         141.2216  141.2590  157.6799 O.2     1  UNL1       -0.2684
      8 C         142.3774  141.6563  158.5496 C.2     1  UNL1        0.2669
      9 N         142.9453  143.0415  158.4557 N.am    1  UNL1       -0.3006
     10 H         143.7038  143.3023  159.0265 H       1  UNL1        0.1497
     11 C         142.9654  140.6685  159.5131 C.ar    1  UNL1        0.1761
     12 C         142.7296  140.6339  160.9941 C.ar    1  UNL1        0.0673
     13 C         143.5108  139.4858  161.5612 C.ar    1  UNL1        0.1792
     14 O         144.2294  138.8108  160.4306 O.2     1  UNL1       -0.3532
     15 N         143.8923  139.5417  159.1649 N.ar    1  UNL1       -0.0723
     16 C         143.5641  139.0833  163.0052 C.ar    1  UNL1        0.0648
     17 C         144.7676  139.4215  163.8341 C.ar    1  UNL1        0.0077
     18 C         144.8209  139.0190  165.2781 C.ar    1  UNL1        0.0299
     19 C         143.6706  138.2784  165.8932 C.ar    1  UNL1        0.1424
     20 F         143.7239  137.8759  167.3372 F       1  UNL1       -0.2041
     21 C         142.4671  137.9402  165.0643 C.ar    1  UNL1        0.0593
     22 C         142.4139  138.3427  163.6203 C.ar    1  UNL1        0.1453
     23 F         141.2103  138.0046  162.7913 F       1  UNL1       -0.2040
     24 C         140.7160  144.8476  159.3325 C.2     1  UNL1        0.2252
     25 O         139.4566  144.0836  159.6156 O.2     1  UNL1       -0.2750
     26 N         141.4489  145.5267  160.4513 N.am    1  UNL1       -0.3010
     27 H         142.2755  146.0281  160.2654 H       1  UNL1        0.1497
     28 C         140.9224  145.4419  161.8532 C.3     1  UNL1        0.1089
     29 C         140.0167  145.6367  163.0330 C.3     1  UNL1        0.0274
     30 C         139.6478  146.2178  161.7001 C.3     1  UNL1        0.0274
     31 C         142.0140  144.6365  162.4932 C.ar    1  UNL1        0.1549
     32 N         143.2550  144.3059  161.7183 N.ar    1  UNL1       -0.2276
     33 C         144.3468  143.5005  162.3583 C.ar    1  UNL1        0.1019
     34 C         144.1974  143.0257  163.7732 C.ar    1  UNL1        0.0413
     35 C         142.9563  143.3562  164.5482 C.ar    1  UNL1        0.1019
     36 N         141.8646  144.1616  163.9083 N.ar    1  UNL1       -0.2276
     37 C         140.5933  146.9929  154.6014 C.3     1  UNL1        0.0576
     38 C         140.5976  147.6551  153.2556 C.3     1  UNL1        0.0173
     39 C         139.5707  148.0417  154.2783 C.3     1  UNL1        0.0173
@<TRIPOS>BOND
     1     7     8    2
     2     8     9   am
     3     1     9    1
     4     1     2    1
     5     2     3    1
     6     3     4    1
     7     4    37    1
     8    37    38    1
     9    38    39    1
    10     4     5    1
    11     5     6    1
    12     6    24    1
    13    24    25    2
    14    24    26   am
    15    26    28    1
    16    28    31    1
    17    31    32   ar
    18    32    33   ar
    19    33    34   ar
    20    34    35   ar
    21    35    36   ar
    22    28    29    1
    23    29    30    1
    24     8    11    1
    25    11    12   ar
    26    12    13   ar
    27    13    16    1
    28    16    17   ar
    29    17    18   ar
    30    18    19   ar
    31    19    20    1
    32    19    21   ar
    33    21    22   ar
    34    22    23    1
    35    13    14   ar
    36    14    15   ar
    37     6     1    1
    38    30    28    1
    39    15    11   ar
    40    39    37    1
    41    36    31   ar
    42    22    16   ar
    43     9    10    1
    44    26    27    1
@<TRIPOS>MOLECULE
*****
 39 44 0 0 0
SMALL
GASTEIGER

@<TRIPOS>ATOM
      1 C         139.3903  140.3124  164.1940 C.3     1  UNL1        0.0832
      2 C         138.3909  139.5056  164.9687 C.3     1  UNL1        0.0374
      3 C         138.4452  139.4832  166.4675 C.3     1  UNL1        0.0738
      4 N         139.4989  140.2676  167.1917 N.3     1  UNL1       -0.2734
      5 C         140.4983  141.0745  166.4170 C.3     1  UNL1        0.0828
      6 C         140.4440  141.0969  164.9182 C.3     1  UNL1        0.1103
      7 O         137.0689  141.5997  162.7962 O.2     1  UNL1       -0.2684
      8 C         138.1754  140.9785  161.9962 C.2     1  UNL1        0.2669
      9 N         139.3361  140.3348  162.6951 N.am    1  UNL1       -0.3006
     10 H         140.0623  139.9271  162.1701 H       1  UNL1        0.1497
     11 C         138.1211  141.0009  160.4974 C.ar    1  UNL1        0.1761
     12 C         138.6199  142.1054  159.6135 C.ar    1  UNL1        0.0673
     13 C         138.3656  141.7100  158.1891 C.ar    1  UNL1        0.1792
     14 O         137.7096  140.3610  158.1927 O.2     1  UNL1       -0.3532
     15 N         137.5585  139.9228  159.6193 N.ar    1  UNL1       -0.0723
     16 C         138.7072  142.5210  156.9744 C.ar    1  UNL1        0.0648
     17 C         140.0876  143.0854  156.8134 C.ar    1  UNL1        0.0077
     18 C         140.4293  143.8965  155.5987 C.ar    1  UNL1        0.0299
     19 C         139.3905  144.1431  154.5450 C.ar    1  UNL1        0.1424
     20 F         139.7321  144.9541  153.3304 F       1  UNL1       -0.2041
     21 C         138.0102  143.5786  154.7061 C.ar    1  UNL1        0.0593
     22 C         137.6685  142.7676  155.9208 C.ar    1  UNL1        0.1453
     23 F         136.2881  142.2032  156.0818 F       1  UNL1       -0.2040
     24 C         141.4434  141.9038  164.1434 C.2     1  UNL1        0.2252
     25 O         142.1978  141.2750  163.0097 O.2     1  UNL1       -0.2750
     26 N         141.6884  143.3394  164.5025 N.am    1  UNL1       -0.3010
     27 H         141.1932  143.7521  165.2467 H       1  UNL1        0.1497
     28 C         142.6877  144.1463  163.7278 C.3     1  UNL1        0.1089
     29 C         143.9911  144.7783  163.3384 C.3     1  UNL1        0.0274
     30 C         143.9102  143.9230  164.5680 C.3     1  UNL1        0.0274
     31 C         141.8124  144.6497  162.6187 C.ar    1  UNL1        0.1549
     32 N         142.2128  144.4319  161.1896 N.ar    1  UNL1       -0.2276
     33 C         141.3375  144.9353  160.0803 C.ar    1  UNL1        0.1019
     34 C         140.0618  145.6566  160.4002 C.ar    1  UNL1        0.0413
     35 C         139.6614  145.8744  161.8292 C.ar    1  UNL1        0.1019
     36 N         140.5367  145.3710  162.9385 N.ar    1  UNL1       -0.2276
     37 C         139.5531  140.2452  168.6906 C.3     1  UNL1        0.0576
     38 C         140.3411  140.1135  169.9601 C.3     1  UNL1        0.0173
     39 C         138.8591  140.3380  170.0171 C.3     1  UNL1        0.0173
@<TRIPOS>BOND
     1     7     8    2
     2     8     9   am
     3     1     9    1
     4     1     2    1
     5     2     3    1
     6     3     4    1
     7     4    37    1
     8    37    38    1
     9    38    39    1
    10     4     5    1
    11     5     6    1
    12     6    24    1
    13    24    25    2
    14    24    26   am
    15    26    28    1
    16    28    31    1
    17    31    32   ar
    18    32    33   ar
    19    33    34   ar
    20    34    35   ar
    21    35    36   ar
    22    28    29    1
    23    29    30    1
    24     8    11    1
    25    11    12   ar
    26    12    13   ar
    27    13    16    1
    28    16    17   ar
    29    17    18   ar
    30    18    19   ar
    31    19    20    1
    32    19    21   ar
    33    21    22   ar
    34    22    23    1
    35    13    14   ar
    36    14    15   ar
    37     6     1    1
    38    30    28    1
    39    15    11   ar
    40    39    37    1
    41    36    31   ar
    42    22    16   ar
    43     9    10    1
    44    26    27    1
@<TRIPOS>MOLECULE
*****
 39 44 0 0 0
SMALL
GASTEIGER

@<TRIPOS>ATOM
      1 C         142.3521  139.0697  161.3437 C.3     1  UNL1        0.0832
      2 C         142.6403  137.7159  160.7659 C.3     1  UNL1        0.0374
      3 C         142.9041  137.5682  159.2967 C.3     1  UNL1        0.0738
      4 N         142.8798  138.7744  158.4054 N.3     1  UNL1       -0.2734
      5 C         142.5916  140.1283  158.9832 C.3     1  UNL1        0.0828
      6 C         142.3277  140.2760  160.4524 C.3     1  UNL1        0.1103
      7 O         144.6385  139.0680  163.2859 O.2     1  UNL1       -0.2684
      8 C         143.2314  139.2166  163.7841 C.2     1  UNL1        0.2669
      9 N         142.0882  139.2174  162.8130 N.am    1  UNL1       -0.3006
     10 H         141.1647  139.3150  163.1399 H       1  UNL1        0.1497
     11 C         142.9676  139.3643  165.2533 C.ar    1  UNL1        0.1761
     12 C         142.0711  140.3845  165.8899 C.ar    1  UNL1        0.0673
     13 C         142.1034  140.1685  167.3739 C.ar    1  UNL1        0.1792
     14 O         143.0199  139.0146  167.6544 O.2     1  UNL1       -0.3532
     15 N         143.5540  138.5176  166.3438 N.ar    1  UNL1       -0.0723
     16 C         141.3512  140.9661  168.3976 C.ar    1  UNL1        0.0648
     17 C         140.0517  140.4518  168.9425 C.ar    1  UNL1        0.0077
     18 C         139.2996  141.2495  169.9662 C.ar    1  UNL1        0.0299
     19 C         139.8469  142.5614  170.4450 C.ar    1  UNL1        0.1424
     20 F         139.0948  143.3591  171.4687 F       1  UNL1       -0.2041
     21 C         141.1464  143.0756  169.9002 C.ar    1  UNL1        0.0593
     22 C         141.8985  142.2780  168.8764 C.ar    1  UNL1        0.1453
     23 F         143.1980  142.7923  168.3315 F       1  UNL1       -0.2040
     24 C         142.0395  141.6299  161.0303 C.2     1  UNL1        0.2252
     25 O         142.9172  142.1859  162.1122 O.2     1  UNL1       -0.2750
     26 N         140.8735  142.4277  160.5264 N.am    1  UNL1       -0.3010
     27 H         140.2975  142.0628  159.8163 H       1  UNL1        0.1497
     28 C         140.5853  143.7816  161.1042 C.3     1  UNL1        0.1089
     29 C         140.6245  145.2683  161.2994 C.3     1  UNL1        0.0274
     30 C         141.4281  144.6343  160.2028 C.3     1  UNL1        0.0274
     31 C         139.6424  143.3990  162.2063 C.ar    1  UNL1        0.1549
     32 N         139.9010  143.8626  163.6092 N.ar    1  UNL1       -0.2276
     33 C         138.9581  143.4800  164.7114 C.ar    1  UNL1        0.1019
     34 C         137.7566  142.6340  164.4105 C.ar    1  UNL1        0.0413
     35 C         137.4980  142.1704  163.0076 C.ar    1  UNL1        0.1019
     36 N         138.4409  142.5529  161.9054 N.ar    1  UNL1       -0.2276
     37 C         143.1436  138.6267  156.9361 C.3     1  UNL1        0.0576
     38 C         143.2186  139.2260  155.5631 C.3     1  UNL1        0.0173
     39 C         143.5257  137.7717  155.7644 C.3     1  UNL1        0.0173
@<TRIPOS>BOND
     1     7     8    2
     2     8     9   am
     3     1     9    1
     4     1     2    1
     5     2     3    1
     6     3     4    1
     7     4    37    1
     8    37    38    1
     9    38    39    1
    10     4     5    1
    11     5     6    1
    12     6    24    1
    13    24    25    2
    14    24    26   am
    15    26    28    1
    16    28    31    1
    17    31    32   ar
    18    32    33   ar
    19    33    34   ar
    20    34    35   ar
    21    35    36   ar
    22    28    29    1
    23    29    30    1
    24     8    11    1
    25    11    12   ar
    26    12    13   ar
    27    13    16    1
    28    16    17   ar
    29    17    18   ar
    30    18    19   ar
    31    19    20    1
    32    19    21   ar
    33    21    22   ar
    34    22    23    1
    35    13    14   ar
    36    14    15   ar
    37     6     1    1
    38    30    28    1
    39    15    11   ar
    40    39    37    1
    41    36    31   ar
    42    22    16   ar
    43     9    10    1
    44    26    27    1
@<TRIPOS>MOLECULE
*****
 39 44 0 0 0
SMALL
GASTEIGER

@<TRIPOS>ATOM
      1 C         140.7019  143.8787  160.4311 C.3     1  UNL1        0.0832
      2 C         140.3144  145.2255  159.8964 C.3     1  UNL1        0.0374
      3 C         140.5842  145.5687  158.4613 C.3     1  UNL1        0.0738
      4 N         141.2414  144.5650  157.5609 N.3     1  UNL1       -0.2734
      5 C         141.6288  143.2182  158.0956 C.3     1  UNL1        0.0828
      6 C         141.3591  142.8750  159.5307 C.3     1  UNL1        0.1103
      7 O         142.8308  144.3057  162.5011 O.2     1  UNL1       -0.2684
      8 C         141.4966  143.7490  162.9012 C.2     1  UNL1        0.2669
      9 N         140.4321  143.5355  161.8662 N.am    1  UNL1       -0.3006
     10 H         139.5564  143.1702  162.1287 H       1  UNL1        0.1497
     11 C         141.2269  143.4059  164.3363 C.ar    1  UNL1        0.1761
     12 C         142.0960  142.5599  165.2189 C.ar    1  UNL1        0.0673
     13 C         141.4470  142.4796  166.5688 C.ar    1  UNL1        0.1792
     14 O         140.1767  143.2760  166.5205 O.2     1  UNL1       -0.3532
     15 N         140.0407  143.8484  165.1407 N.ar    1  UNL1       -0.0723
     16 C         141.9754  141.7339  167.7582 C.ar    1  UNL1        0.0648
     17 C         142.9260  142.4068  168.7037 C.ar    1  UNL1        0.0077
     18 C         143.4544  141.6611  169.8931 C.ar    1  UNL1        0.0299
     19 C         143.0323  140.2425  170.1370 C.ar    1  UNL1        0.1424
     20 F         143.5607  139.4969  171.3264 F       1  UNL1       -0.2041
     21 C         142.0818  139.5697  169.1917 C.ar    1  UNL1        0.0593
     22 C         141.5534  140.3154  168.0023 C.ar    1  UNL1        0.1453
     23 F         140.6029  139.6426  167.0568 F       1  UNL1       -0.2040
     24 C         141.7465  141.5282  160.0654 C.2     1  UNL1        0.2252
     25 O         140.7555  140.7184  160.8477 O.2     1  UNL1       -0.2750
     26 N         143.1250  140.9911  159.8178 N.am    1  UNL1       -0.3010
     27 H         143.7755  141.5227  159.3043 H       1  UNL1        0.1497
     28 C         143.5125  139.6444  160.3525 C.3     1  UNL1        0.1089
     29 C         143.6712  138.1554  160.4413 C.3     1  UNL1        0.0274
     30 C         142.9883  138.7674  159.2542 C.3     1  UNL1        0.0274
     31 C         144.1713  140.0535  161.6364 C.ar    1  UNL1        0.1549
     32 N         144.1075  139.1511  162.8329 N.ar    1  UNL1       -0.2276
     33 C         144.7663  139.5602  164.1170 C.ar    1  UNL1        0.1019
     34 C         145.4889  140.8718  164.2044 C.ar    1  UNL1        0.0413
     35 C         145.5527  141.7742  163.0079 C.ar    1  UNL1        0.1019
     36 N         144.8939  141.3651  161.7239 N.ar    1  UNL1       -0.2276
     37 C         141.5111  144.9082  156.1258 C.3     1  UNL1        0.0576
     38 C         142.4613  145.0011  154.9688 C.3     1  UNL1        0.0173
     39 C         141.0283  145.4097  154.7972 C.3     1  UNL1        0.0173
@<TRIPOS>BOND
     1     7     8    2
     2     8     9   am
     3     1     9    1
     4     1     2    1
     5     2     3    1
     6     3     4    1
     7     4    37    1
     8    37    38    1
     9    38    39    1
    10     4     5    1
    11     5     6    1
    12     6    24    1
    13    24    25    2
    14    24    26   am
    15    26    28    1
    16    28    31    1
    17    31    32   ar
    18    32    33   ar
    19    33    34   ar
    20    34    35   ar
    21    35    36   ar
    22    28    29    1
    23    29    30    1
    24     8    11    1
    25    11    12   ar
    26    12    13   ar
    27    13    16    1
    28    16    17   ar
    29    17    18   ar
    30    18    19   ar
    31    19    20    1
    32    19    21   ar
    33    21    22   ar
    34    22    23    1
    35    13    14   ar
    36    14    15   ar
    37     6     1    1
    38    30    28    1
    39    15    11   ar
    40    39    37    1
    41    36    31   ar
    42    22    16   ar
    43     9    10    1
    44    26    27    1
@<TRIPOS>MOLECULE
*****
 39 44 0 0 0
SMALL
GASTEIGER

@<TRIPOS>ATOM
      1 C         140.9681  143.8234  160.9524 C.3     1  UNL1        0.0832
      2 C         140.6577  145.2498  160.6075 C.3     1  UNL1        0.0374
      3 C         140.4363  145.6444  159.1774 C.3     1  UNL1        0.0738
      4 N         140.5254  144.6127  158.0922 N.3     1  UNL1       -0.2734
      5 C         140.8358  143.1863  158.4371 C.3     1  UNL1        0.0828
      6 C         141.0572  142.7916  159.8672 C.3     1  UNL1        0.1103
      7 O         143.6685  144.1862  162.2078 O.2     1  UNL1       -0.2684
      8 C         142.5397  143.6101  163.0102 C.2     1  UNL1        0.2669
      9 N         141.1895  143.4286  162.3825 N.am    1  UNL1       -0.3006
     10 H         140.4486  143.0505  162.9092 H       1  UNL1        0.1497
     11 C         142.7611  143.2154  164.4403 C.ar    1  UNL1        0.1761
     12 C         141.7853  142.4850  165.3146 C.ar    1  UNL1        0.0673
     13 C         142.4183  142.2999  166.6618 C.ar    1  UNL1        0.1792
     14 O         143.7854  142.9160  166.6202 O.2     1  UNL1       -0.3532
     15 N         143.9972  143.4817  165.2472 N.ar    1  UNL1       -0.0723
     16 C         141.7939  141.6185  167.8433 C.ar    1  UNL1        0.0648
     17 C         142.3215  140.2944  168.3106 C.ar    1  UNL1        0.0077
     18 C         141.6971  139.6130  169.4920 C.ar    1  UNL1        0.0299
     19 C         140.5452  140.2557  170.2062 C.ar    1  UNL1        0.1424
     20 F         139.9208  139.5743  171.3876 F       1  UNL1       -0.2041
     21 C         140.0177  141.5798  169.7389 C.ar    1  UNL1        0.0593
     22 C         140.6421  142.2612  168.5574 C.ar    1  UNL1        0.1453
     23 F         140.1145  143.5854  168.0901 F       1  UNL1       -0.2040
     24 C         141.3676  141.3652  160.2122 C.2     1  UNL1        0.2252
     25 O         140.3192  140.5025  160.8498 O.2     1  UNL1       -0.2750
     26 N         142.7265  140.8014  159.9195 N.am    1  UNL1       -0.3010
     27 H         143.4146  141.3677  159.5010 H       1  UNL1        0.1497
     28 C         143.0369  139.3751  160.2644 C.3     1  UNL1        0.1089
     29 C         143.1808  137.8891  160.1194 C.3     1  UNL1        0.0274
     30 C         142.6650  138.7080  158.9734 C.3     1  UNL1        0.0274
     31 C         143.5167  139.5467  161.6752 C.ar    1  UNL1        0.1549
     32 N         142.8875  138.7549  162.7829 N.ar    1  UNL1       -0.2276
     33 C         143.3672  138.9266  164.1938 C.ar    1  UNL1        0.1019
     34 C         144.4762  139.8900  164.4968 C.ar    1  UNL1        0.0413
     35 C         145.1054  140.6818  163.3891 C.ar    1  UNL1        0.1019
     36 N         144.6257  140.5102  161.9783 N.ar    1  UNL1       -0.2276
     37 C         140.3040  145.0074  156.6621 C.3     1  UNL1        0.0576
     38 C         139.3823  145.1922  155.4932 C.3     1  UNL1        0.0173
     39 C         140.8423  145.5063  155.3539 C.3     1  UNL1        0.0173
@<TRIPOS>BOND
     1     7     8    2
     2     8     9   am
     3     1     9    1
     4     1     2    1
     5     2     3    1
     6     3     4    1
     7     4    37    1
     8    37    38    1
     9    38    39    1
    10     4     5    1
    11     5     6    1
    12     6    24    1
    13    24    25    2
    14    24    26   am
    15    26    28    1
    16    28    31    1
    17    31    32   ar
    18    32    33   ar
    19    33    34   ar
    20    34    35   ar
    21    35    36   ar
    22    28    29    1
    23    29    30    1
    24     8    11    1
    25    11    12   ar
    26    12    13   ar
    27    13    16    1
    28    16    17   ar
    29    17    18   ar
    30    18    19   ar
    31    19    20    1
    32    19    21   ar
    33    21    22   ar
    34    22    23    1
    35    13    14   ar
    36    14    15   ar
    37     6     1    1
    38    30    28    1
    39    15    11   ar
    40    39    37    1
    41    36    31   ar
    42    22    16   ar
    43     9    10    1
    44    26    27    1
@<TRIPOS>MOLECULE
*****
 39 44 0 0 0
SMALL
GASTEIGER

@<TRIPOS>ATOM
      1 C         139.4735  141.8187  160.1068 C.3     1  UNL1        0.0832
      2 C         138.4095  141.2912  159.1905 C.3     1  UNL1        0.0374
      3 C         138.1169  141.9940  157.8981 C.3     1  UNL1        0.0738
      4 N         138.8882  143.2243  157.5220 N.3     1  UNL1       -0.2734
      5 C         139.9522  143.7518  158.4383 C.3     1  UNL1        0.0828
      6 C         140.2448  143.0490  159.7307 C.3     1  UNL1        0.1103
      7 O         137.3373  141.5753  162.1991 O.2     1  UNL1       -0.2684
      8 C         138.6981  140.9941  162.4454 C.2     1  UNL1        0.2669
      9 N         139.7662  141.1158  161.3993 N.am    1  UNL1       -0.3006
     10 H         140.6593  140.7345  161.5610 H       1  UNL1        0.1497
     11 C         138.9908  140.2914  163.7378 C.ar    1  UNL1        0.1761
     12 C         139.6577  140.8948  164.9383 C.ar    1  UNL1        0.0673
     13 C         139.7470  139.8382  165.9991 C.ar    1  UNL1        0.1792
     14 O         139.1352  138.5816  165.4543 O.2     1  UNL1       -0.3532
     15 N         138.6678  138.8617  164.0568 N.ar    1  UNL1       -0.0723
     16 C         140.3434  140.0082  167.3649 C.ar    1  UNL1        0.0648
     17 C         139.4496  140.1652  168.5593 C.ar    1  UNL1        0.0077
     18 C         140.0459  140.3352  169.9251 C.ar    1  UNL1        0.0299
     19 C         141.5360  140.3482  170.0965 C.ar    1  UNL1        0.1424
     20 F         142.1324  140.5182  171.4623 F       1  UNL1       -0.2041
     21 C         142.4297  140.1911  168.9022 C.ar    1  UNL1        0.0593
     22 C         141.8334  140.0211  167.5364 C.ar    1  UNL1        0.1453
     23 F         142.7272  139.8641  166.3420 F       1  UNL1       -0.2040
     24 C         141.3088  143.5764  160.6471 C.2     1  UNL1        0.2252
     25 O         142.5488  144.1988  160.0769 O.2     1  UNL1       -0.2750
     26 N         141.1328  143.4815  162.1337 N.am    1  UNL1       -0.3010
     27 H         140.3190  143.0730  162.5080 H       1  UNL1        0.1497
     28 C         142.1968  144.0089  163.0501 C.3     1  UNL1        0.1089
     29 C         142.9475  144.9520  163.9429 C.3     1  UNL1        0.0274
     30 C         141.6645  145.3889  163.3003 C.3     1  UNL1        0.0274
     31 C         143.0986  142.8123  163.1183 C.ar    1  UNL1        0.1549
     32 N         144.5801  142.9969  163.2627 N.ar    1  UNL1       -0.2276
     33 C         145.4820  141.8002  163.3309 C.ar    1  UNL1        0.1019
     34 C         144.9023  140.4189  163.2546 C.ar    1  UNL1        0.0413
     35 C         143.4207  140.2343  163.1101 C.ar    1  UNL1        0.1019
     36 N         142.5188  141.4309  163.0420 N.ar    1  UNL1       -0.2276
     37 C         138.5955  143.9271  156.2295 C.3     1  UNL1        0.0576
     38 C         137.6078  144.5055  155.2601 C.3     1  UNL1        0.0173
     39 C         139.0763  144.5660  154.9604 C.3     1  UNL1        0.0173
@<TRIPOS>BOND
     1     7     8    2
     2     8     9   am
     3     1     9    1
     4     1     2    1
     5     2     3    1
     6     3     4    1
     7     4    37    1
     8    37    38    1
     9    38    39    1
    10     4     5    1
    11     5     6    1
    12     6    24    1
    13    24    25    2
    14    24    26   am
    15    26    28    1
    16    28    31    1
    17    31    32   ar
    18    32    33   ar
    19    33    34   ar
    20    34    35   ar
    21    35    36   ar
    22    28    29    1
    23    29    30    1
    24     8    11    1
    25    11    12   ar
    26    12    13   ar
    27    13    16    1
    28    16    17   ar
    29    17    18   ar
    30    18    19   ar
    31    19    20    1
    32    19    21   ar
    33    21    22   ar
    34    22    23    1
    35    13    14   ar
    36    14    15   ar
    37     6     1    1
    38    30    28    1
    39    15    11   ar
    40    39    37    1
    41    36    31   ar
    42    22    16   ar
    43     9    10    1
    44    26    27    1
@<TRIPOS>MOLECULE
*****
 39 44 0 0 0
SMALL
GASTEIGER

@<TRIPOS>ATOM
      1 C         142.1465  139.3862  164.1877 C.3     1  UNL1        0.0832
      2 C         142.9453  138.4256  165.0178 C.3     1  UNL1        0.0374
      3 C         143.1098  138.6632  166.4896 C.3     1  UNL1        0.0738
      4 N         142.4756  139.8615  167.1314 N.3     1  UNL1       -0.2734
      5 C         141.6768  140.8221  166.3013 C.3     1  UNL1        0.0828
      6 C         141.5123  140.5845  164.8294 C.3     1  UNL1        0.1103
      7 O         144.4202  139.9507  162.3137 O.2     1  UNL1       -0.2684
      8 C         143.1187  139.4308  161.7788 C.2     1  UNL1        0.2669
      9 N         141.9819  139.1486  162.7157 N.am    1  UNL1       -0.3006
     10 H         141.1278  138.8073  162.3647 H       1  UNL1        0.1497
     11 C         142.9542  139.1932  160.3069 C.ar    1  UNL1        0.1761
     12 C         141.6959  138.7511  159.6204 C.ar    1  UNL1        0.0673
     13 C         141.9831  138.6406  158.1523 C.ar    1  UNL1        0.1792
     14 O         143.4189  139.0146  157.9315 O.2     1  UNL1       -0.3532
     15 N         144.0191  139.3561  159.2631 N.ar    1  UNL1       -0.0723
     16 C         141.0061  138.2286  157.0913 C.ar    1  UNL1        0.0648
     17 C         139.9328  139.1791  156.6502 C.ar    1  UNL1        0.0077
     18 C         138.9558  138.7671  155.5892 C.ar    1  UNL1        0.0299
     19 C         139.0521  137.4046  154.9694 C.ar    1  UNL1        0.1424
     20 F         138.0751  136.9926  153.9084 F       1  UNL1       -0.2041
     21 C         140.1253  136.4541  155.4105 C.ar    1  UNL1        0.0593
     22 C         141.1023  136.8661  156.4715 C.ar    1  UNL1        0.1453
     23 F         142.1756  135.9156  156.9126 F       1  UNL1       -0.2040
     24 C         140.7134  141.5451  163.9993 C.2     1  UNL1        0.2252
     25 O         141.3993  142.4058  162.9801 O.2     1  UNL1       -0.2750
     26 N         139.2288  141.6450  164.1884 N.am    1  UNL1       -0.3010
     27 H         138.7786  141.0801  164.8573 H       1  UNL1        0.1497
     28 C         138.4299  142.6056  163.3583 C.3     1  UNL1        0.1089
     29 C         137.6897  143.8486  162.9619 C.3     1  UNL1        0.0274
     30 C         138.3213  143.7524  164.3191 C.3     1  UNL1        0.0274
     31 C         138.2611  141.7926  162.1091 C.ar    1  UNL1        0.1549
     32 N         138.6276  142.3783  160.7777 N.ar    1  UNL1       -0.2276
     33 C         138.4588  141.5652  159.5285 C.ar    1  UNL1        0.1019
     34 C         137.9235  140.1664  159.6108 C.ar    1  UNL1        0.0413
     35 C         137.5570  139.5807  160.9422 C.ar    1  UNL1        0.1019
     36 N         137.7258  140.3937  162.1914 N.ar    1  UNL1       -0.2276
     37 C         142.6402  140.0992  168.6033 C.3     1  UNL1        0.0576
     38 C         142.9864  141.0136  169.7408 C.3     1  UNL1        0.0173
     39 C         142.5790  139.5963  170.0152 C.3     1  UNL1        0.0173
@<TRIPOS>BOND
     1     7     8    2
     2     8     9   am
     3     1     9    1
     4     1     2    1
     5     2     3    1
     6     3     4    1
     7     4    37    1
     8    37    38    1
     9    38    39    1
    10     4     5    1
    11     5     6    1
    12     6    24    1
    13    24    25    2
    14    24    26   am
    15    26    28    1
    16    28    31    1
    17    31    32   ar
    18    32    33   ar
    19    33    34   ar
    20    34    35   ar
    21    35    36   ar
    22    28    29    1
    23    29    30    1
    24     8    11    1
    25    11    12   ar
    26    12    13   ar
    27    13    16    1
    28    16    17   ar
    29    17    18   ar
    30    18    19   ar
    31    19    20    1
    32    19    21   ar
    33    21    22   ar
    34    22    23    1
    35    13    14   ar
    36    14    15   ar
    37     6     1    1
    38    30    28    1
    39    15    11   ar
    40    39    37    1
    41    36    31   ar
    42    22    16   ar
    43     9    10    1
    44    26    27    1
@<TRIPOS>MOLECULE
*****
 39 44 0 0 0
SMALL
GASTEIGER

@<TRIPOS>ATOM
      1 C         142.4262  139.0005  160.7231 C.3     1  UNL1        0.0832
      2 C         142.9895  137.7065  160.2151 C.3     1  UNL1        0.0374
      3 C         142.8847  137.3632  158.7587 C.3     1  UNL1        0.0738
      4 N         142.2165  138.3140  157.8103 N.3     1  UNL1       -0.2734
      5 C         141.6531  139.6080  158.3183 C.3     1  UNL1        0.0828
      6 C         141.7580  139.9513  159.7746 C.3     1  UNL1        0.1103
      7 O         141.1209  137.2448  162.7758 O.2     1  UNL1       -0.2684
      8 C         141.8784  138.4660  163.2059 C.2     1  UNL1        0.2669
      9 N         142.5311  139.3439  162.1795 N.am    1  UNL1       -0.3006
     10 H         143.0282  140.1453  162.4618 H       1  UNL1        0.1497
     11 C         141.9832  138.8093  164.6623 C.ar    1  UNL1        0.1761
     12 C         141.1356  139.8055  165.3966 C.ar    1  UNL1        0.0673
     13 C         141.5826  139.8285  166.8282 C.ar    1  UNL1        0.1792
     14 O         142.7065  138.8465  166.9787 O.2     1  UNL1       -0.3532
     15 N         142.9541  138.2166  165.6401 N.ar    1  UNL1       -0.0723
     16 C         141.0068  140.6834  167.9180 C.ar    1  UNL1        0.0648
     17 C         139.8829  140.1634  168.7644 C.ar    1  UNL1        0.0077
     18 C         139.3071  141.0183  169.8542 C.ar    1  UNL1        0.0299
     19 C         139.8553  142.3932  170.0975 C.ar    1  UNL1        0.1424
     20 F         139.2795  143.2481  171.1873 F       1  UNL1       -0.2041
     21 C         140.9792  142.9131  169.2512 C.ar    1  UNL1        0.0593
     22 C         141.5549  142.0582  168.1614 C.ar    1  UNL1        0.1453
     23 F         142.6789  142.5782  167.3150 F       1  UNL1       -0.2040
     24 C         141.1947  141.2454  160.2827 C.2     1  UNL1        0.2252
     25 O         140.1422  141.2370  161.3514 O.2     1  UNL1       -0.2750
     26 N         141.6839  142.5478  159.7219 N.am    1  UNL1       -0.3010
     27 H         142.3746  142.5533  159.0205 H       1  UNL1        0.1497
     28 C         141.1206  143.8419  160.2299 C.3     1  UNL1        0.1089
     29 C         140.2392  145.0511  160.3341 C.3     1  UNL1        0.0274
     30 C         140.0091  144.0471  159.2437 C.3     1  UNL1        0.0274
     31 C         142.0364  144.0861  161.3924 C.ar    1  UNL1        0.1549
     32 N         143.4780  143.6801  161.3098 N.ar    1  UNL1       -0.2276
     33 C         144.3939  143.9244  162.4724 C.ar    1  UNL1        0.1019
     34 C         143.8681  144.5746  163.7176 C.ar    1  UNL1        0.0413
     35 C         142.4265  144.9806  163.8003 C.ar    1  UNL1        0.1019
     36 N         141.5106  144.7364  162.6378 N.ar    1  UNL1       -0.2276
     37 C         142.1116  137.9707  156.3538 C.3     1  UNL1        0.0576
     38 C         142.3714  138.3126  154.9166 C.3     1  UNL1        0.0173
     39 C         141.6702  137.0341  155.2684 C.3     1  UNL1        0.0173
@<TRIPOS>BOND
     1     7     8    2
     2     8     9   am
     3     1     9    1
     4     1     2    1
     5     2     3    1
     6     3     4    1
     7     4    37    1
     8    37    38    1
     9    38    39    1
    10     4     5    1
    11     5     6    1
    12     6    24    1
    13    24    25    2
    14    24    26   am
    15    26    28    1
    16    28    31    1
    17    31    32   ar
    18    32    33   ar
    19    33    34   ar
    20    34    35   ar
    21    35    36   ar
    22    28    29    1
    23    29    30    1
    24     8    11    1
    25    11    12   ar
    26    12    13   ar
    27    13    16    1
    28    16    17   ar
    29    17    18   ar
    30    18    19   ar
    31    19    20    1
    32    19    21   ar
    33    21    22   ar
    34    22    23    1
    35    13    14   ar
    36    14    15   ar
    37     6     1    1
    38    30    28    1
    39    15    11   ar
    40    39    37    1
    41    36    31   ar
    42    22    16   ar
    43     9    10    1
    44    26    27    1
@<TRIPOS>MOLECULE
*****
 39 44 0 0 0
SMALL
GASTEIGER

@<TRIPOS>ATOM
      1 C         139.8584  139.4970  164.3043 C.3     1  UNL1        0.0832
      2 C         138.8998  138.7043  165.1424 C.3     1  UNL1        0.0374
      3 C         138.8195  138.9454  166.6207 C.3     1  UNL1        0.0738
      4 N         139.6978  139.9792  167.2608 N.3     1  UNL1       -0.2734
      5 C         140.6564  140.7720  166.4227 C.3     1  UNL1        0.0828
      6 C         140.7367  140.5309  164.9444 C.3     1  UNL1        0.1103
      7 O         137.6688  140.4780  162.5033 O.2     1  UNL1       -0.2684
      8 C         138.8440  139.7464  161.9254 C.2     1  UNL1        0.2669
      9 N         139.9388  139.2559  162.8259 N.am    1  UNL1       -0.3006
     10 H         140.7101  138.7758  162.4467 H       1  UNL1        0.1497
     11 C         138.9243  139.5054  160.4471 C.ar    1  UNL1        0.1761
     12 C         139.8592  138.5560  159.7581 C.ar    1  UNL1        0.0673
     13 C         139.5965  138.6352  158.2834 C.ar    1  UNL1        0.1792
     14 O         138.4993  139.6337  158.0610 O.2     1  UNL1       -0.3532
     15 N         138.0839  140.1714  159.3983 N.ar    1  UNL1       -0.0723
     16 C         140.3064  137.8534  157.2181 C.ar    1  UNL1        0.0648
     17 C         139.5256  137.2294  156.0997 C.ar    1  UNL1        0.0077
     18 C         140.2354  136.4476  155.0344 C.ar    1  UNL1        0.0299
     19 C         141.7262  136.2898  155.0876 C.ar    1  UNL1        0.1424
     20 F         142.4360  135.5080  154.0223 F       1  UNL1       -0.2041
     21 C         142.5070  136.9138  156.2060 C.ar    1  UNL1        0.0593
     22 C         141.7971  137.6956  157.2713 C.ar    1  UNL1        0.1453
     23 F         142.5779  138.3196  158.3897 F       1  UNL1       -0.2040
     24 C         141.6954  141.3236  164.1062 C.2     1  UNL1        0.2252
     25 O         142.3487  140.6913  162.9132 O.2     1  UNL1       -0.2750
     26 N         142.0006  142.7487  164.4610 N.am    1  UNL1       -0.3010
     27 H         141.5718  143.1638  165.2440 H       1  UNL1        0.1497
     28 C         142.9592  143.5415  163.6228 C.3     1  UNL1        0.1089
     29 C         144.2537  144.0866  163.0965 C.3     1  UNL1        0.0274
     30 C         144.2593  143.1038  164.2296 C.3     1  UNL1        0.0274
     31 C         141.9921  144.2545  162.7250 C.ar    1  UNL1        0.1549
     32 N         140.7579  144.8833  163.3007 N.ar    1  UNL1       -0.2276
     33 C         139.7907  145.5964  162.4029 C.ar    1  UNL1        0.1019
     34 C         140.0578  145.6807  160.9293 C.ar    1  UNL1        0.0413
     35 C         141.2920  145.0520  160.3535 C.ar    1  UNL1        0.1019
     36 N         142.2591  144.3389  161.2513 N.ar    1  UNL1       -0.2276
     37 C         139.6174  140.2203  168.7392 C.3     1  UNL1        0.0576
     38 C         138.8130  140.5660  169.9572 C.3     1  UNL1        0.0173
     39 C         140.2825  140.2921  170.0818 C.3     1  UNL1        0.0173
@<TRIPOS>BOND
     1     7     8    2
     2     8     9   am
     3     1     9    1
     4     1     2    1
     5     2     3    1
     6     3     4    1
     7     4    37    1
     8    37    38    1
     9    38    39    1
    10     4     5    1
    11     5     6    1
    12     6    24    1
    13    24    25    2
    14    24    26   am
    15    26    28    1
    16    28    31    1
    17    31    32   ar
    18    32    33   ar
    19    33    34   ar
    20    34    35   ar
    21    35    36   ar
    22    28    29    1
    23    29    30    1
    24     8    11    1
    25    11    12   ar
    26    12    13   ar
    27    13    16    1
    28    16    17   ar
    29    17    18   ar
    30    18    19   ar
    31    19    20    1
    32    19    21   ar
    33    21    22   ar
    34    22    23    1
    35    13    14   ar
    36    14    15   ar
    37     6     1    1
    38    30    28    1
    39    15    11   ar
    40    39    37    1
    41    36    31   ar
    42    22    16   ar
    43     9    10    1
    44    26    27    1
