@<TRIPOS>MOLECULE
*****
 38 43 0 0 0
SMALL
GASTEIGER

@<TRIPOS>ATOM
      1 C         137.8353  142.9257  163.0683 C.3     1  UNL1        0.0932
      2 C         138.0538  142.7281  161.5976 C.3     1  UNL1        0.0286
      3 C         138.1590  141.3418  161.0345 C.3     1  UNL1        0.0196
      4 C         138.0458  140.1530  161.9423 C.3     1  UNL1        0.0732
      5 C         137.8273  140.3506  163.4131 C.3     1  UNL1        0.0196
      6 C         137.7220  141.7370  163.9761 C.3     1  UNL1        0.0286
      7 C         137.9817  140.8933  162.2970 C.3     1  UNL1        0.1564
      8 O         137.8865  142.1469  162.8061 O.3     1  UNL1       -0.3571
      9 N         138.1510  138.7667  161.3793 N.3     1  UNL1       -0.2666
     10 C         136.9141  137.9415  161.1817 C.3     1  UNL1        0.0899
     11 C         139.4932  138.2056  161.0138 C.3     1  UNL1        0.1187
     12 C         140.6535  138.3657  161.9509 C.ar    1  UNL1        0.0768
     13 C         140.7569  137.4999  163.1714 C.ar    1  UNL1        0.0194
     14 C         141.9171  137.6599  164.1084 C.ar    1  UNL1        0.0411
     15 C         142.9741  138.6859  163.8251 C.ar    1  UNL1        0.1708
     16 C         142.8707  139.5518  162.6046 C.ar    1  UNL1        0.1682
     17 N         141.7104  139.3917  161.6675 N.ar    1  UNL1       -0.2304
     18 N         143.9276  140.5778  162.3212 N.am    1  UNL1       -0.2639
     19 C         145.0879  140.7379  163.2583 C.2     1  UNL1        0.2718
     20 O         146.1448  141.7639  162.9749 O.2     1  UNL1       -0.2707
     21 C         145.1912  139.8720  164.4788 C.3     1  UNL1        0.2898
     22 O         144.1343  138.8460  164.7622 O.3     1  UNL1       -0.4628
     23 H         143.8598  141.1461  161.5202 H       1  UNL1        0.1565
     24 C         137.7300  144.3120  163.6314 C.3     1  UNL1        0.0320
     25 C         138.8408  144.8657  164.4739 C.3     1  UNL1        0.0327
     26 C         140.8351  142.0729  167.3847 C.ar    1  UNL1        0.2250
     27 C         142.2481  141.6282  167.1493 C.ar    1  UNL1        0.0593
     28 C         142.9965  142.1144  165.9437 C.ar    1  UNL1        0.0254
     29 C         142.3317  143.0454  164.9734 C.ar    1  UNL1        0.0990
     30 N         143.0800  143.5316  163.7678 N.ar    1  UNL1       -0.2400
     31 C         142.4153  144.4626  162.7975 C.ar    1  UNL1        0.1281
     32 C         141.0022  144.9073  163.0329 C.ar    1  UNL1        0.1566
     33 F         140.3374  145.8382  162.0626 F       1  UNL1       -0.2028
     34 C         140.2538  144.4210  164.2385 C.ar    1  UNL1        0.0261
     35 C         140.9187  143.4901  165.2088 C.ar    1  UNL1        0.1002
     36 N         140.1703  143.0038  166.4144 N.ar    1  UNL1       -0.2104
     37 C         139.6117  140.1653  168.6554 C.3     1  UNL1        0.2542
     38 O         140.0867  141.5866  168.5903 O.3     1  UNL1       -0.4561
@<TRIPOS>BOND
     1    37    38    1
     2    38    26    1
     3    26    27   ar
     4    27    28   ar
     5    28    29   ar
     6    29    30   ar
     7    30    31   ar
     8    31    32   ar
     9    32    33    1
    10    32    34   ar
    11    34    25    1
    12    25    24    1
    13    24     1    1
    14     1     2    1
    15     2     3    1
    16     3     4    1
    17     4     9    1
    18     9    10    1
    19     9    11    1
    20    11    12    1
    21    12    13   ar
    22    13    14   ar
    23    14    15   ar
    24    15    16   ar
    25    16    17   ar
    26    16    18    1
    27    18    19   am
    28    19    20    2
    29    19    21    1
    30    21    22    1
    31     4     5    1
    32     5     6    1
    33     4     7    1
    34     7     8    1
    35    34    35   ar
    36    35    36   ar
    37    36    26   ar
    38    35    29   ar
    39     6     1    1
    40     8     1    1
    41    17    12   ar
    42    22    15    1
    43    18    23    1
@<TRIPOS>MOLECULE
*****
 38 43 0 0 0
SMALL
GASTEIGER

@<TRIPOS>ATOM
      1 C         142.9340  144.0492  162.7102 C.3     1  UNL1        0.0932
      2 C         141.6617  144.8247  162.8833 C.3     1  UNL1        0.0286
      3 C         140.4646  144.4998  162.0399 C.3     1  UNL1        0.0196
      4 C         140.5398  143.3993  161.0233 C.3     1  UNL1        0.0732
      5 C         141.8120  142.6237  160.8503 C.3     1  UNL1        0.0196
      6 C         143.0091  142.9487  161.6937 C.3     1  UNL1        0.0286
      7 C         141.2218  143.5409  161.4623 C.3     1  UNL1        0.1564
      8 O         142.3042  143.8347  162.2250 O.3     1  UNL1       -0.3571
      9 N         139.3427  143.0743  160.1799 N.3     1  UNL1       -0.2666
     10 C         139.3313  143.4338  158.7237 C.3     1  UNL1        0.0899
     11 C         138.1570  142.3899  160.7928 C.3     1  UNL1        0.1187
     12 C         138.3490  141.1511  161.6166 C.ar    1  UNL1        0.0768
     13 C         138.8452  139.8910  160.9716 C.ar    1  UNL1        0.0194
     14 C         139.0372  138.6522  161.7953 C.ar    1  UNL1        0.0411
     15 C         138.7330  138.6735  163.2641 C.ar    1  UNL1        0.1708
     16 C         138.2369  139.9336  163.9090 C.ar    1  UNL1        0.1682
     17 N         138.0448  141.1724  163.0852 N.ar    1  UNL1       -0.2304
     18 N         137.9327  139.9549  165.3777 N.am    1  UNL1       -0.2639
     19 C         138.1248  138.7162  166.2014 C.2     1  UNL1        0.2718
     20 O         137.8206  138.7375  167.6701 O.2     1  UNL1       -0.2707
     21 C         138.6209  137.4561  165.5564 C.3     1  UNL1        0.2898
     22 O         138.9251  137.4347  164.0878 O.3     1  UNL1       -0.4628
     23 H         137.6071  140.7820  165.8010 H       1  UNL1        0.1565
     24 C         144.1310  144.3741  163.5536 C.3     1  UNL1        0.0320
     25 C         144.3368  143.6752  164.8648 C.3     1  UNL1        0.0327
     26 C         141.1898  141.8285  167.4984 C.ar    1  UNL1        0.2250
     27 C         141.0621  140.3363  167.5810 C.ar    1  UNL1        0.0593
     28 C         141.9835  139.4596  166.7857 C.ar    1  UNL1        0.0254
     29 C         143.0325  140.0751  165.9079 C.ar    1  UNL1        0.0990
     30 N         143.9538  139.1984  165.1126 N.ar    1  UNL1       -0.2400
     31 C         145.0028  139.8139  164.2347 C.ar    1  UNL1        0.1281
     32 C         145.1305  141.3062  164.1521 C.ar    1  UNL1        0.1566
     33 F         146.1795  141.9218  163.2742 F       1  UNL1       -0.2028
     34 C         144.2091  142.1829  164.9474 C.ar    1  UNL1        0.0261
     35 C         143.1601  141.5673  165.8253 C.ar    1  UNL1        0.1002
     36 N         142.2388  142.4440  166.6206 N.ar    1  UNL1       -0.2104
     37 C         140.7405  143.3192  169.5783 C.3     1  UNL1        0.2542
     38 O         140.2684  142.7052  168.2937 O.3     1  UNL1       -0.4561
@<TRIPOS>BOND
     1    37    38    1
     2    38    26    1
     3    26    27   ar
     4    27    28   ar
     5    28    29   ar
     6    29    30   ar
     7    30    31   ar
     8    31    32   ar
     9    32    33    1
    10    32    34   ar
    11    34    25    1
    12    25    24    1
    13    24     1    1
    14     1     2    1
    15     2     3    1
    16     3     4    1
    17     4     9    1
    18     9    10    1
    19     9    11    1
    20    11    12    1
    21    12    13   ar
    22    13    14   ar
    23    14    15   ar
    24    15    16   ar
    25    16    17   ar
    26    16    18    1
    27    18    19   am
    28    19    20    2
    29    19    21    1
    30    21    22    1
    31     4     5    1
    32     5     6    1
    33     4     7    1
    34     7     8    1
    35    34    35   ar
    36    35    36   ar
    37    36    26   ar
    38    35    29   ar
    39     6     1    1
    40     8     1    1
    41    17    12   ar
    42    22    15    1
    43    18    23    1
@<TRIPOS>MOLECULE
*****
 38 43 0 0 0
SMALL
GASTEIGER

@<TRIPOS>ATOM
      1 C         138.6752  142.9330  164.2562 C.3     1  UNL1        0.0932
      2 C         137.8397  141.9170  163.5352 C.3     1  UNL1        0.0286
      3 C         137.7418  140.5161  164.0622 C.3     1  UNL1        0.0196
      4 C         138.4795  140.1311  165.3103 C.3     1  UNL1        0.0732
      5 C         139.3151  141.1470  166.0313 C.3     1  UNL1        0.0196
      6 C         139.4129  142.5480  165.5042 C.3     1  UNL1        0.0286
      7 C         138.5637  140.9109  165.0598 C.3     1  UNL1        0.1564
      8 O         138.6522  142.1776  164.5832 O.3     1  UNL1       -0.3571
      9 N         138.3817  138.7301  165.8373 N.3     1  UNL1       -0.2666
     10 C         137.5398  138.4400  167.0444 C.3     1  UNL1        0.0899
     11 C         139.1258  137.6194  165.1573 C.3     1  UNL1        0.1187
     12 C         140.4053  137.9090  164.4298 C.ar    1  UNL1        0.0768
     13 C         141.6337  138.2969  165.1983 C.ar    1  UNL1        0.0194
     14 C         142.9131  138.5865  164.4709 C.ar    1  UNL1        0.0411
     15 C         142.9641  138.4883  162.9749 C.ar    1  UNL1        0.1708
     16 C         141.7357  138.1005  162.2064 C.ar    1  UNL1        0.1682
     17 N         140.4562  137.8108  162.9339 N.ar    1  UNL1       -0.2304
     18 N         141.7866  138.0023  160.7105 N.am    1  UNL1       -0.2639
     19 C         143.0660  138.2919  159.9831 C.2     1  UNL1        0.2718
     20 O         143.1171  138.1937  158.4872 O.2     1  UNL1       -0.2707
     21 C         144.2945  138.6798  160.7516 C.3     1  UNL1        0.2898
     22 O         144.2435  138.7780  162.2475 O.3     1  UNL1       -0.4628
     23 H         140.9804  137.7477  160.2062 H       1  UNL1        0.1565
     24 C         138.7730  144.3339  163.7291 C.3     1  UNL1        0.0320
     25 C         140.1050  145.0212  163.6687 C.3     1  UNL1        0.0327
     26 C         143.8163  143.0876  165.3231 C.ar    1  UNL1        0.2250
     27 C         144.8785  142.5840  164.3915 C.ar    1  UNL1        0.0593
     28 C         144.7037  142.7250  162.9084 C.ar    1  UNL1        0.0254
     29 C         143.4666  143.3695  162.3570 C.ar    1  UNL1        0.0990
     30 N         143.2918  143.5105  160.8739 N.ar    1  UNL1       -0.2400
     31 C         142.0548  144.1550  160.3224 C.ar    1  UNL1        0.1281
     32 C         140.9924  144.6586  161.2540 C.ar    1  UNL1        0.1566
     33 F         139.7553  145.3031  160.7026 F       1  UNL1       -0.2028
     34 C         141.1672  144.5176  162.7371 C.ar    1  UNL1        0.0261
     35 C         142.4044  143.8731  163.2886 C.ar    1  UNL1        0.1002
     36 N         142.5792  143.7321  164.7717 N.ar    1  UNL1       -0.2104
     37 C         142.9780  142.1891  167.6122 C.3     1  UNL1        0.2542
     38 O         143.9911  142.9466  166.8062 O.3     1  UNL1       -0.4561
@<TRIPOS>BOND
     1    37    38    1
     2    38    26    1
     3    26    27   ar
     4    27    28   ar
     5    28    29   ar
     6    29    30   ar
     7    30    31   ar
     8    31    32   ar
     9    32    33    1
    10    32    34   ar
    11    34    25    1
    12    25    24    1
    13    24     1    1
    14     1     2    1
    15     2     3    1
    16     3     4    1
    17     4     9    1
    18     9    10    1
    19     9    11    1
    20    11    12    1
    21    12    13   ar
    22    13    14   ar
    23    14    15   ar
    24    15    16   ar
    25    16    17   ar
    26    16    18    1
    27    18    19   am
    28    19    20    2
    29    19    21    1
    30    21    22    1
    31     4     5    1
    32     5     6    1
    33     4     7    1
    34     7     8    1
    35    34    35   ar
    36    35    36   ar
    37    36    26   ar
    38    35    29   ar
    39     6     1    1
    40     8     1    1
    41    17    12   ar
    42    22    15    1
    43    18    23    1
@<TRIPOS>MOLECULE
*****
 38 43 0 0 0
SMALL
GASTEIGER

@<TRIPOS>ATOM
      1 C         139.1237  143.2150  164.8152 C.3     1  UNL1        0.0932
      2 C         138.0827  142.4063  164.0996 C.3     1  UNL1        0.0286
      3 C         137.8963  140.9567  164.4370 C.3     1  UNL1        0.0196
      4 C         138.7511  140.3158  165.4900 C.3     1  UNL1        0.0732
      5 C         139.7922  141.1246  166.2055 C.3     1  UNL1        0.0196
      6 C         139.9785  142.5742  165.8681 C.3     1  UNL1        0.0286
      7 C         138.8900  141.1133  165.3395 C.3     1  UNL1        0.1564
      8 O         139.0585  142.4240  165.0344 O.3     1  UNL1       -0.3571
      9 N         138.5648  138.8662  165.8274 N.3     1  UNL1       -0.2666
     10 C         137.6527  138.4686  166.9499 C.3     1  UNL1        0.0899
     11 C         139.2905  137.8141  165.0423 C.3     1  UNL1        0.1187
     12 C         139.5483  138.0151  163.5783 C.ar    1  UNL1        0.0768
     13 C         138.4206  137.9011  162.5957 C.ar    1  UNL1        0.0194
     14 C         138.6783  138.1020  161.1318 C.ar    1  UNL1        0.0411
     15 C         140.0636  138.4170  160.6503 C.ar    1  UNL1        0.1708
     16 C         141.1913  138.5310  161.6329 C.ar    1  UNL1        0.1682
     17 N         140.9335  138.3301  163.0969 N.ar    1  UNL1       -0.2304
     18 N         142.5765  138.8460  161.1516 N.am    1  UNL1       -0.2639
     19 C         142.8342  139.0470  159.6876 C.2     1  UNL1        0.2718
     20 O         144.2195  139.3620  159.2062 O.2     1  UNL1       -0.2707
     21 C         141.7066  138.9329  158.7050 C.3     1  UNL1        0.2898
     22 O         140.3213  138.6180  159.1864 O.3     1  UNL1       -0.4628
     23 H         143.3166  138.9209  161.7965 H       1  UNL1        0.1565
     24 C         139.3101  144.6646  164.4778 C.3     1  UNL1        0.0320
     25 C         140.6469  145.1604  164.0114 C.3     1  UNL1        0.0327
     26 C         143.9250  142.1803  163.2222 C.ar    1  UNL1        0.2250
     27 C         144.3745  141.9147  161.8160 C.ar    1  UNL1        0.0593
     28 C         143.7314  142.6425  160.6729 C.ar    1  UNL1        0.0254
     29 C         142.6387  143.6359  160.9360 C.ar    1  UNL1        0.0990
     30 N         141.9956  144.3637  159.7929 N.ar    1  UNL1       -0.2400
     31 C         140.9029  145.3570  160.0559 C.ar    1  UNL1        0.1281
     32 C         140.4533  145.6226  161.4622 C.ar    1  UNL1        0.1566
     33 F         139.3606  146.6160  161.7252 F       1  UNL1       -0.2028
     34 C         141.0964  144.8948  162.6053 C.ar    1  UNL1        0.0261
     35 C         142.1891  143.9014  162.3422 C.ar    1  UNL1        0.1002
     36 N         142.8323  143.1736  163.4853 N.ar    1  UNL1       -0.2104
     37 C         145.1070  140.0672  164.1643 C.3     1  UNL1        0.2542
     38 O         144.5681  141.4525  164.3653 O.3     1  UNL1       -0.4561
@<TRIPOS>BOND
     1    37    38    1
     2    38    26    1
     3    26    27   ar
     4    27    28   ar
     5    28    29   ar
     6    29    30   ar
     7    30    31   ar
     8    31    32   ar
     9    32    33    1
    10    32    34   ar
    11    34    25    1
    12    25    24    1
    13    24     1    1
    14     1     2    1
    15     2     3    1
    16     3     4    1
    17     4     9    1
    18     9    10    1
    19     9    11    1
    20    11    12    1
    21    12    13   ar
    22    13    14   ar
    23    14    15   ar
    24    15    16   ar
    25    16    17   ar
    26    16    18    1
    27    18    19   am
    28    19    20    2
    29    19    21    1
    30    21    22    1
    31     4     5    1
    32     5     6    1
    33     4     7    1
    34     7     8    1
    35    34    35   ar
    36    35    36   ar
    37    36    26   ar
    38    35    29   ar
    39     6     1    1
    40     8     1    1
    41    17    12   ar
    42    22    15    1
    43    18    23    1
@<TRIPOS>MOLECULE
*****
 38 43 0 0 0
SMALL
GASTEIGER

@<TRIPOS>ATOM
      1 C         139.8793  137.8594  163.7011 C.3     1  UNL1        0.0932
      2 C         139.4343  138.2967  162.3370 C.3     1  UNL1        0.0286
      3 C         140.4437  138.4862  161.2438 C.3     1  UNL1        0.0196
      4 C         141.8981  138.2384  161.5146 C.3     1  UNL1        0.0732
      5 C         142.3431  137.8011  162.8787 C.3     1  UNL1        0.0196
      6 C         141.3337  137.6116  163.9720 C.3     1  UNL1        0.0286
      7 C         141.3820  138.1213  162.1453 C.3     1  UNL1        0.1564
      8 O         140.4693  137.9499  163.1339 O.3     1  UNL1       -0.3571
      9 N         142.9074  138.4279  160.4213 N.3     1  UNL1       -0.2666
     10 C         142.7416  137.7100  159.1147 C.3     1  UNL1        0.0899
     11 C         144.0826  139.3353  160.6346 C.3     1  UNL1        0.1187
     12 C         143.9294  140.5802  161.4574 C.ar    1  UNL1        0.0768
     13 C         144.8929  140.8667  162.5707 C.ar    1  UNL1        0.0194
     14 C         144.7397  142.1115  163.3934 C.ar    1  UNL1        0.0411
     15 C         143.6230  143.0699  163.1028 C.ar    1  UNL1        0.1708
     16 C         142.6595  142.7834  161.9894 C.ar    1  UNL1        0.1682
     17 N         142.8127  141.5385  161.1667 N.ar    1  UNL1       -0.2304
     18 N         141.5428  143.7418  161.6988 N.am    1  UNL1       -0.2639
     19 C         141.3896  144.9866  162.5215 C.2     1  UNL1        0.2718
     20 O         140.2728  145.9450  162.2309 O.2     1  UNL1       -0.2707
     21 C         142.3531  145.2731  163.6349 C.3     1  UNL1        0.2898
     22 O         143.4698  144.3148  163.9255 O.3     1  UNL1       -0.4628
     23 H         140.9104  143.5538  160.9681 H       1  UNL1        0.1565
     24 C         138.8700  137.6699  164.7944 C.3     1  UNL1        0.0320
     25 C         138.4777  138.8289  165.6622 C.3     1  UNL1        0.0327
     26 C         142.2668  140.1190  167.7184 C.ar    1  UNL1        0.2250
     27 C         142.8373  141.4808  167.4540 C.ar    1  UNL1        0.0593
     28 C         142.1448  142.4126  166.5041 C.ar    1  UNL1        0.0254
     29 C         140.8818  141.9826  165.8187 C.ar    1  UNL1        0.0990
     30 N         140.1893  142.9144  164.8689 N.ar    1  UNL1       -0.2400
     31 C         138.9263  142.4844  164.1835 C.ar    1  UNL1        0.1281
     32 C         138.3557  141.1225  164.4479 C.ar    1  UNL1        0.1566
     33 F         137.0927  140.6925  163.7625 F       1  UNL1       -0.2028
     34 C         139.0482  140.1907  165.3978 C.ar    1  UNL1        0.0261
     35 C         140.3113  140.6208  166.0832 C.ar    1  UNL1        0.1002
     36 N         141.0038  139.6890  167.0330 N.ar    1  UNL1       -0.2104
     37 C         142.4020  138.9674  170.0434 C.3     1  UNL1        0.2542
     38 O         142.9594  139.1872  168.6683 O.3     1  UNL1       -0.4561
@<TRIPOS>BOND
     1    37    38    1
     2    38    26    1
     3    26    27   ar
     4    27    28   ar
     5    28    29   ar
     6    29    30   ar
     7    30    31   ar
     8    31    32   ar
     9    32    33    1
    10    32    34   ar
    11    34    25    1
    12    25    24    1
    13    24     1    1
    14     1     2    1
    15     2     3    1
    16     3     4    1
    17     4     9    1
    18     9    10    1
    19     9    11    1
    20    11    12    1
    21    12    13   ar
    22    13    14   ar
    23    14    15   ar
    24    15    16   ar
    25    16    17   ar
    26    16    18    1
    27    18    19   am
    28    19    20    2
    29    19    21    1
    30    21    22    1
    31     4     5    1
    32     5     6    1
    33     4     7    1
    34     7     8    1
    35    34    35   ar
    36    35    36   ar
    37    36    26   ar
    38    35    29   ar
    39     6     1    1
    40     8     1    1
    41    17    12   ar
    42    22    15    1
    43    18    23    1
@<TRIPOS>MOLECULE
*****
 38 43 0 0 0
SMALL
GASTEIGER

@<TRIPOS>ATOM
      1 C         138.7108  139.7942  165.0245 C.3     1  UNL1        0.0932
      2 C         137.8049  140.5018  164.0608 C.3     1  UNL1        0.0286
      3 C         137.8305  141.9987  163.9683 C.3     1  UNL1        0.0196
      4 C         138.7621  142.7881  164.8395 C.3     1  UNL1        0.0732
      5 C         139.6681  142.0806  165.8032 C.3     1  UNL1        0.0196
      6 C         139.6424  140.5836  165.8956 C.3     1  UNL1        0.0286
      7 C         138.7838  141.9696  164.9258 C.3     1  UNL1        0.1564
      8 O         138.7606  140.6160  165.0095 O.3     1  UNL1       -0.3571
      9 N         138.7877  144.2850  164.7471 N.3     1  UNL1       -0.2666
     10 C         138.2089  145.1149  165.8544 C.3     1  UNL1        0.0899
     11 C         139.3922  144.9520  163.5472 C.3     1  UNL1        0.1187
     12 C         140.7592  144.5525  163.0762 C.ar    1  UNL1        0.0768
     13 C         141.9773  145.0899  163.7671 C.ar    1  UNL1        0.0194
     14 C         143.3443  144.6904  163.2961 C.ar    1  UNL1        0.0411
     15 C         143.4931  143.7535  162.1341 C.ar    1  UNL1        0.1708
     16 C         142.2750  143.2162  161.4432 C.ar    1  UNL1        0.1682
     17 N         140.9080  143.6157  161.9142 N.ar    1  UNL1       -0.2304
     18 N         142.4238  142.2794  160.2812 N.am    1  UNL1       -0.2639
     19 C         143.7907  141.8799  159.8102 C.2     1  UNL1        0.2718
     20 O         143.9396  140.9430  158.6482 O.2     1  UNL1       -0.2707
     21 C         145.0089  142.4173  160.5012 C.3     1  UNL1        0.2898
     22 O         144.8601  143.3541  161.6631 O.3     1  UNL1       -0.4628
     23 H         141.6243  141.9267  159.8277 H       1  UNL1        0.1565
     24 C         138.6852  138.2973  165.1169 C.3     1  UNL1        0.0320
     25 C         139.3148  137.4683  164.0369 C.3     1  UNL1        0.0327
     26 C         143.2796  138.6302  165.8202 C.ar    1  UNL1        0.2250
     27 C         144.3496  139.2196  164.9498 C.ar    1  UNL1        0.0593
     28 C         144.0980  139.4217  163.4849 C.ar    1  UNL1        0.0254
     29 C         142.7764  139.0344  162.8905 C.ar    1  UNL1        0.0990
     30 N         142.5248  139.2366  161.4256 N.ar    1  UNL1       -0.2400
     31 C         141.2032  138.8493  160.8312 C.ar    1  UNL1        0.1281
     32 C         140.1332  138.2598  161.7016 C.ar    1  UNL1        0.1566
     33 F         138.8116  137.8725  161.1072 F       1  UNL1       -0.2028
     34 C         140.3848  138.0577  163.1665 C.ar    1  UNL1        0.0261
     35 C         141.7064  138.4450  163.7609 C.ar    1  UNL1        0.1002
     36 N         141.9580  138.2429  165.2258 N.ar    1  UNL1       -0.2104
     37 C         142.7595  139.2240  168.2954 C.3     1  UNL1        0.2542
     38 O         143.5312  138.4280  167.2851 O.3     1  UNL1       -0.4561
@<TRIPOS>BOND
     1    37    38    1
     2    38    26    1
     3    26    27   ar
     4    27    28   ar
     5    28    29   ar
     6    29    30   ar
     7    30    31   ar
     8    31    32   ar
     9    32    33    1
    10    32    34   ar
    11    34    25    1
    12    25    24    1
    13    24     1    1
    14     1     2    1
    15     2     3    1
    16     3     4    1
    17     4     9    1
    18     9    10    1
    19     9    11    1
    20    11    12    1
    21    12    13   ar
    22    13    14   ar
    23    14    15   ar
    24    15    16   ar
    25    16    17   ar
    26    16    18    1
    27    18    19   am
    28    19    20    2
    29    19    21    1
    30    21    22    1
    31     4     5    1
    32     5     6    1
    33     4     7    1
    34     7     8    1
    35    34    35   ar
    36    35    36   ar
    37    36    26   ar
    38    35    29   ar
    39     6     1    1
    40     8     1    1
    41    17    12   ar
    42    22    15    1
    43    18    23    1
@<TRIPOS>MOLECULE
*****
 38 43 0 0 0
SMALL
GASTEIGER

@<TRIPOS>ATOM
      1 C         141.5270  144.7213  162.5482 C.3     1  UNL1        0.0932
      2 C         142.0754  143.9158  161.4078 C.3     1  UNL1        0.0286
      3 C         143.0622  142.8174  161.6716 C.3     1  UNL1        0.0196
      4 C         143.5008  142.5245  163.0759 C.3     1  UNL1        0.0732
      5 C         142.9525  143.3300  164.2163 C.3     1  UNL1        0.0196
      6 C         141.9655  144.4284  163.9524 C.3     1  UNL1        0.0286
      7 C         142.9580  143.1362  162.9807 C.3     1  UNL1        0.1564
      8 O         142.0656  144.1294  162.7422 O.3     1  UNL1       -0.3571
      9 N         144.4877  141.4261  163.3397 N.3     1  UNL1       -0.2666
     10 C         145.9288  141.7573  163.5915 C.3     1  UNL1        0.0899
     11 C         144.0334  139.9967  163.3517 C.3     1  UNL1        0.1187
     12 C         142.6501  139.6532  163.8194 C.ar    1  UNL1        0.0768
     13 C         141.6672  139.0393  162.8670 C.ar    1  UNL1        0.0194
     14 C         140.2840  138.6959  163.3345 C.ar    1  UNL1        0.0411
     15 C         139.8835  138.9663  164.7546 C.ar    1  UNL1        0.1708
     16 C         140.8664  139.5803  165.7071 C.ar    1  UNL1        0.1682
     17 N         142.2497  139.9237  165.2394 N.ar    1  UNL1       -0.2304
     18 N         140.4660  139.8507  167.1271 N.am    1  UNL1       -0.2639
     19 C         139.0828  139.5073  167.5946 C.2     1  UNL1        0.2718
     20 O         138.6823  139.7777  169.0147 O.2     1  UNL1       -0.2707
     21 C         138.0999  138.8933  166.6422 C.3     1  UNL1        0.2898
     22 O         138.5003  138.6229  165.2222 O.3     1  UNL1       -0.4628
     23 H         141.1111  140.2537  167.7522 H       1  UNL1        0.1565
     24 C         140.5402  145.8196  162.2843 C.3     1  UNL1        0.0320
     25 C         139.0692  145.5257  162.2984 C.3     1  UNL1        0.0327
     26 C         138.5651  142.1229  159.3972 C.ar    1  UNL1        0.2250
     27 C         138.0709  140.7919  159.8809 C.ar    1  UNL1        0.0593
     28 C         137.7446  140.5951  161.3318 C.ar    1  UNL1        0.0254
     29 C         137.9127  141.7294  162.2988 C.ar    1  UNL1        0.0990
     30 N         137.5865  141.5326  163.7496 N.ar    1  UNL1       -0.2400
     31 C         137.7545  142.6668  164.7167 C.ar    1  UNL1        0.1281
     32 C         138.2488  143.9979  164.2329 C.ar    1  UNL1        0.1566
     33 F         138.4168  145.1321  165.2000 F       1  UNL1       -0.2028
     34 C         138.5750  144.1947  162.7821 C.ar    1  UNL1        0.0261
     35 C         138.4069  143.0604  161.8151 C.ar    1  UNL1        0.1002
     36 N         138.7331  143.2572  160.3642 N.ar    1  UNL1       -0.2104
     37 C         139.4652  143.6236  157.4768 C.3     1  UNL1        0.2542
     38 O         138.8913  142.3197  157.9464 O.3     1  UNL1       -0.4561
@<TRIPOS>BOND
     1    37    38    1
     2    38    26    1
     3    26    27   ar
     4    27    28   ar
     5    28    29   ar
     6    29    30   ar
     7    30    31   ar
     8    31    32   ar
     9    32    33    1
    10    32    34   ar
    11    34    25    1
    12    25    24    1
    13    24     1    1
    14     1     2    1
    15     2     3    1
    16     3     4    1
    17     4     9    1
    18     9    10    1
    19     9    11    1
    20    11    12    1
    21    12    13   ar
    22    13    14   ar
    23    14    15   ar
    24    15    16   ar
    25    16    17   ar
    26    16    18    1
    27    18    19   am
    28    19    20    2
    29    19    21    1
    30    21    22    1
    31     4     5    1
    32     5     6    1
    33     4     7    1
    34     7     8    1
    35    34    35   ar
    36    35    36   ar
    37    36    26   ar
    38    35    29   ar
    39     6     1    1
    40     8     1    1
    41    17    12   ar
    42    22    15    1
    43    18    23    1
@<TRIPOS>MOLECULE
*****
 38 43 0 0 0
SMALL
GASTEIGER

@<TRIPOS>ATOM
      1 C         143.2638  141.9740  161.8898 C.3     1  UNL1        0.0932
      2 C         141.9828  141.9099  161.1119 C.3     1  UNL1        0.0286
      3 C         140.8793  142.8833  161.4026 C.3     1  UNL1        0.0196
      4 C         141.0567  143.9209  162.4713 C.3     1  UNL1        0.0732
      5 C         142.3376  143.9850  163.2491 C.3     1  UNL1        0.0196
      6 C         143.4412  143.0115  162.9584 C.3     1  UNL1        0.0286
      7 C         141.6896  143.4090  162.3478 C.3     1  UNL1        0.1564
      8 O         142.6875  142.5288  162.0850 O.3     1  UNL1       -0.3571
      9 N         139.9531  144.8944  162.7620 N.3     1  UNL1       -0.2666
     10 C         139.8111  146.1366  161.9333 C.3     1  UNL1        0.0899
     11 C         138.9916  144.6256  163.8815 C.3     1  UNL1        0.1187
     12 C         139.1938  143.4377  164.7749 C.ar    1  UNL1        0.0768
     13 C         138.5353  142.1309  164.4454 C.ar    1  UNL1        0.0194
     14 C         138.7374  140.9430  165.3387 C.ar    1  UNL1        0.0411
     15 C         139.5980  141.0620  166.5616 C.ar    1  UNL1        0.1708
     16 C         140.2564  142.3688  166.8911 C.ar    1  UNL1        0.1682
     17 N         140.0543  143.5567  165.9977 N.ar    1  UNL1       -0.2304
     18 N         141.1169  142.4878  168.1139 N.am    1  UNL1       -0.2639
     19 C         141.3190  141.3000  169.0072 C.2     1  UNL1        0.2718
     20 O         142.1795  141.4189  170.2301 O.2     1  UNL1       -0.2707
     21 C         140.6606  139.9931  168.6777 C.3     1  UNL1        0.2898
     22 O         139.8001  139.8741  167.4549 O.3     1  UNL1       -0.4628
     23 H         141.5490  143.3456  168.3301 H       1  UNL1        0.1565
     24 C         144.3673  141.0005  161.5990 C.3     1  UNL1        0.0320
     25 C         144.1790  139.5424  161.8967 C.3     1  UNL1        0.0327
     26 C         139.9382  138.0376  161.9254 C.ar    1  UNL1        0.2250
     27 C         139.3023  137.6116  163.2153 C.ar    1  UNL1        0.0593
     28 C         140.0799  137.6871  164.4958 C.ar    1  UNL1        0.0254
     29 C         141.4935  138.1887  164.4862 C.ar    1  UNL1        0.0990
     30 N         142.2712  138.2642  165.7667 N.ar    1  UNL1       -0.2400
     31 C         143.6848  138.7658  165.7571 C.ar    1  UNL1        0.1281
     32 C         144.3208  139.1919  164.4671 C.ar    1  UNL1        0.1566
     33 F         145.7344  139.6935  164.4576 F       1  UNL1       -0.2028
     34 C         143.5431  139.1163  163.1867 C.ar    1  UNL1        0.0261
     35 C         142.1294  138.6147  163.1963 C.ar    1  UNL1        0.1002
     36 N         141.3517  138.5392  161.9158 N.ar    1  UNL1       -0.2104
     37 C         139.0310  139.1760  159.7734 C.3     1  UNL1        0.2542
     38 O         139.1605  137.9621  160.6449 O.3     1  UNL1       -0.4561
@<TRIPOS>BOND
     1    37    38    1
     2    38    26    1
     3    26    27   ar
     4    27    28   ar
     5    28    29   ar
     6    29    30   ar
     7    30    31   ar
     8    31    32   ar
     9    32    33    1
    10    32    34   ar
    11    34    25    1
    12    25    24    1
    13    24     1    1
    14     1     2    1
    15     2     3    1
    16     3     4    1
    17     4     9    1
    18     9    10    1
    19     9    11    1
    20    11    12    1
    21    12    13   ar
    22    13    14   ar
    23    14    15   ar
    24    15    16   ar
    25    16    17   ar
    26    16    18    1
    27    18    19   am
    28    19    20    2
    29    19    21    1
    30    21    22    1
    31     4     5    1
    32     5     6    1
    33     4     7    1
    34     7     8    1
    35    34    35   ar
    36    35    36   ar
    37    36    26   ar
    38    35    29   ar
    39     6     1    1
    40     8     1    1
    41    17    12   ar
    42    22    15    1
    43    18    23    1
@<TRIPOS>MOLECULE
*****
 38 43 0 0 0
SMALL
GASTEIGER

@<TRIPOS>ATOM
      1 C         139.8303  138.0357  163.9408 C.3     1  UNL1        0.0932
      2 C         141.2758  137.8136  164.2743 C.3     1  UNL1        0.0286
      3 C         142.3056  137.8131  163.1837 C.3     1  UNL1        0.0196
      4 C         141.8899  138.0347  161.7595 C.3     1  UNL1        0.0732
      5 C         140.4444  138.2568  161.4260 C.3     1  UNL1        0.0196
      6 C         139.4146  138.2573  162.5167 C.3     1  UNL1        0.0286
      7 C         141.2896  138.0436  162.3229 C.3     1  UNL1        0.1564
      8 O         140.3583  138.0441  163.3091 O.3     1  UNL1       -0.3571
      9 N         142.9198  138.0341  160.6690 N.3     1  UNL1       -0.2666
     10 C         142.8374  137.0273  159.5601 C.3     1  UNL1        0.0899
     11 C         144.0320  139.0404  160.6872 C.3     1  UNL1        0.1187
     12 C         143.7969  140.4079  161.2572 C.ar    1  UNL1        0.0768
     13 C         142.9055  141.3769  160.5385 C.ar    1  UNL1        0.0194
     14 C         142.6704  142.7443  161.1083 C.ar    1  UNL1        0.0411
     15 C         143.3267  143.1428  162.3970 C.ar    1  UNL1        0.1708
     16 C         144.2181  142.1739  163.1157 C.ar    1  UNL1        0.1682
     17 N         144.4532  140.8064  162.5458 N.ar    1  UNL1       -0.2304
     18 N         144.8744  142.5723  164.4043 N.am    1  UNL1       -0.2639
     19 C         144.6393  143.9398  164.9741 C.2     1  UNL1        0.2718
     20 O         145.2956  144.3383  166.2628 O.2     1  UNL1       -0.2707
     21 C         143.7479  144.9088  164.2554 C.3     1  UNL1        0.2898
     22 O         143.0916  144.5103  162.9668 O.3     1  UNL1       -0.4628
     23 H         145.4594  141.9364  164.8760 H       1  UNL1        0.1565
     24 C         138.8004  138.0363  165.0314 C.3     1  UNL1        0.0320
     25 C         138.1320  139.3183  165.4311 C.3     1  UNL1        0.0327
     26 C         138.4467  142.8421  162.6502 C.ar    1  UNL1        0.2250
     27 C         139.2753  144.0310  163.0370 C.ar    1  UNL1        0.0593
     28 C         139.9991  144.0455  164.3508 C.ar    1  UNL1        0.0254
     29 C         139.8942  142.8709  165.2778 C.ar    1  UNL1        0.0990
     30 N         140.6179  142.8853  166.5915 N.ar    1  UNL1       -0.2400
     31 C         140.5130  141.7107  167.5185 C.ar    1  UNL1        0.1281
     32 C         139.6843  140.5217  167.1317 C.ar    1  UNL1        0.1566
     33 F         139.5794  139.3471  168.0587 F       1  UNL1       -0.2028
     34 C         138.9606  140.5072  165.8179 C.ar    1  UNL1        0.0261
     35 C         139.0656  141.6819  164.8909 C.ar    1  UNL1        0.1002
     36 N         138.3418  141.6675  163.5772 N.ar    1  UNL1       -0.2104
     37 C         138.4725  142.5351  160.0705 C.3     1  UNL1        0.2542
     38 O         137.7230  142.8277  161.3364 O.3     1  UNL1       -0.4561
@<TRIPOS>BOND
     1    37    38    1
     2    38    26    1
     3    26    27   ar
     4    27    28   ar
     5    28    29   ar
     6    29    30   ar
     7    30    31   ar
     8    31    32   ar
     9    32    33    1
    10    32    34   ar
    11    34    25    1
    12    25    24    1
    13    24     1    1
    14     1     2    1
    15     2     3    1
    16     3     4    1
    17     4     9    1
    18     9    10    1
    19     9    11    1
    20    11    12    1
    21    12    13   ar
    22    13    14   ar
    23    14    15   ar
    24    15    16   ar
    25    16    17   ar
    26    16    18    1
    27    18    19   am
    28    19    20    2
    29    19    21    1
    30    21    22    1
    31     4     5    1
    32     5     6    1
    33     4     7    1
    34     7     8    1
    35    34    35   ar
    36    35    36   ar
    37    36    26   ar
    38    35    29   ar
    39     6     1    1
    40     8     1    1
    41    17    12   ar
    42    22    15    1
    43    18    23    1
