@<TRIPOS>MOLECULE
*****
 29 31 0 0 0
SMALL
GASTEIGER

@<TRIPOS>ATOM
      1 C         141.2502  140.4236  168.3766 C.ar    1  UNL1        0.0519
      2 C         140.8052  140.7556  169.7700 C.ar    1  UNL1        0.0853
      3 C         139.4086  140.4288  170.2092 C.ar    1  UNL1        0.1045
      4 N         138.4571  139.7700  169.2550 N.ar    1  UNL1       -0.2436
      5 C         138.9021  139.4381  167.8614 C.ar    1  UNL1        0.0825
      6 C         137.9506  138.7793  166.9072 C.ar    1  UNL1        0.0191
      7 C         138.3956  138.4474  165.5138 C.ar    1  UNL1        0.0016
      8 C         139.7921  138.7742  165.0746 C.ar    1  UNL1        0.0032
      9 C         140.7437  139.4329  166.0288 C.ar    1  UNL1        0.0028
     10 C         140.2986  139.7649  167.4222 C.ar    1  UNL1        0.0309
     11 C         140.2371  138.4422  163.6810 C.ar    1  UNL1        0.0396
     12 C         141.3798  137.5436  163.3109 C.ar    1  UNL1        0.1216
     13 N         141.4665  137.4966  161.8142 N.ar    1  UNL1       -0.1676
     14 N         140.3774  138.3660  161.2592 N.ar    1  UNL1       -0.2473
     15 C         140.0972  138.6085  159.8057 C.3     1  UNL1        0.1538
     16 C         139.6176  138.9504  162.4130 C.ar    1  UNL1        0.0967
     17 C         141.7567  141.4144  170.7243 C.2     1  UNL1        0.2455
     18 N         142.6179  140.5769  171.6226 N.am    1  UNL1       -0.3252
     19 O         141.8470  142.9106  170.7803 O.2     1  UNL1       -0.2703
     20 H         142.5586  139.5948  171.5858 H       1  UNL1        0.1453
     21 H         143.2424  141.0092  172.2489 H       1  UNL1        0.1453
     22 N         142.6467  140.7504  167.9374 N.pl3   1  UNL1       -0.3325
     23 H         143.3654  140.0866  168.0473 H       1  UNL1        0.1468
     24 C         142.9483  142.0888  167.3307 C.3     1  UNL1        0.0870
     25 C         142.9004  142.2653  165.8419 C.3     1  UNL1        0.0195
     26 C         140.4518  143.1253  165.9624 C.3     1  UNL1        0.0001
     27 C         141.7385  142.9704  165.2072 C.3     1  UNL1        0.0017
     28 C         144.0144  141.7365  164.9877 C.3     1  UNL1        0.0017
     29 C         144.0507  140.2834  164.6174 C.3     1  UNL1        0.0001
@<TRIPOS>BOND
     1    26    27    1
     2    27    25    1
     3    25    28    1
     4    28    29    1
     5    25    24    1
     6    24    22    1
     7    22     1    1
     8     1     2   ar
     9     2    17    1
    10    17    18   am
    11    17    19    2
    12     2     3   ar
    13     3     4   ar
    14     4     5   ar
    15     5     6   ar
    16     6     7   ar
    17     7     8   ar
    18     8    11    1
    19    11    12   ar
    20    12    13   ar
    21    13    14   ar
    22    14    15    1
    23    14    16   ar
    24     8     9   ar
    25     9    10   ar
    26    10     1   ar
    27    10     5   ar
    28    16    11   ar
    29    22    23    1
    30    18    20    1
    31    18    21    1
@<TRIPOS>MOLECULE
*****
 29 31 0 0 0
SMALL
GASTEIGER

@<TRIPOS>ATOM
      1 C         141.2532  140.4354  168.3491 C.ar    1  UNL1        0.0519
      2 C         140.8072  140.7661  169.7425 C.ar    1  UNL1        0.0853
      3 C         139.4130  140.4312  170.1830 C.ar    1  UNL1        0.1045
      4 N         138.4648  139.7656  169.2301 N.ar    1  UNL1       -0.2436
      5 C         138.9108  139.4350  167.8366 C.ar    1  UNL1        0.0825
      6 C         137.9627  138.7694  166.8837 C.ar    1  UNL1        0.0191
      7 C         138.4087  138.4388  165.4903 C.ar    1  UNL1        0.0016
      8 C         139.8029  138.7737  165.0498 C.ar    1  UNL1        0.0032
      9 C         140.7511  139.4392  166.0027 C.ar    1  UNL1        0.0028
     10 C         140.3050  139.7699  167.3961 C.ar    1  UNL1        0.0309
     11 C         140.2489  138.4430  163.6563 C.ar    1  UNL1        0.0396
     12 C         141.3802  137.5302  163.2859 C.ar    1  UNL1        0.1216
     13 N         141.4725  137.4901  161.7892 N.ar    1  UNL1       -0.1676
     14 N         140.3982  138.3782  161.2347 N.ar    1  UNL1       -0.2473
     15 C         140.1277  138.6326  159.7814 C.3     1  UNL1        0.1538
     16 C         139.6421  138.9671  162.3886 C.ar    1  UNL1        0.0967
     17 C         141.7553  141.4316  170.6954 C.2     1  UNL1        0.2455
     18 N         142.6136  140.6005  171.6024 N.am    1  UNL1       -0.3252
     19 O         141.8452  142.9282  170.7414 O.2     1  UNL1       -0.2703
     20 H         142.5547  139.6183  171.5722 H       1  UNL1        0.1453
     21 H         143.2359  141.0373  172.2279 H       1  UNL1        0.1453
     22 N         142.6474  140.7703  167.9085 N.pl3   1  UNL1       -0.3325
     23 H         143.3690  140.1088  168.0130 H       1  UNL1        0.1468
     24 C         142.9422  142.1133  167.3087 C.3     1  UNL1        0.0870
     25 C         142.9226  142.2901  165.8193 C.3     1  UNL1        0.0195
     26 C         143.9907  140.3205  164.5041 C.3     1  UNL1        0.0001
     27 C         144.0408  141.7408  164.9840 C.3     1  UNL1        0.0017
     28 C         141.7846  143.0162  165.1652 C.3     1  UNL1        0.0017
     29 C         140.4648  143.1310  165.8688 C.3     1  UNL1        0.0001
@<TRIPOS>BOND
     1    26    27    1
     2    27    25    1
     3    25    28    1
     4    28    29    1
     5    25    24    1
     6    24    22    1
     7    22     1    1
     8     1     2   ar
     9     2    17    1
    10    17    18   am
    11    17    19    2
    12     2     3   ar
    13     3     4   ar
    14     4     5   ar
    15     5     6   ar
    16     6     7   ar
    17     7     8   ar
    18     8    11    1
    19    11    12   ar
    20    12    13   ar
    21    13    14   ar
    22    14    15    1
    23    14    16   ar
    24     8     9   ar
    25     9    10   ar
    26    10     1   ar
    27    10     5   ar
    28    16    11   ar
    29    22    23    1
    30    18    20    1
    31    18    21    1
@<TRIPOS>MOLECULE
*****
 29 31 0 0 0
SMALL
GASTEIGER

@<TRIPOS>ATOM
      1 C         140.5945  141.6684  167.6755 C.ar    1  UNL1        0.0519
      2 C         140.3219  141.9979  169.1133 C.ar    1  UNL1        0.0853
      3 C         139.3410  141.1778  169.8978 C.ar    1  UNL1        0.1045
      4 N         138.6327  140.0283  169.2445 N.ar    1  UNL1       -0.2436
      5 C         138.9052  139.6988  167.8067 C.ar    1  UNL1        0.0825
      6 C         138.1968  138.5493  167.1535 C.ar    1  UNL1        0.0191
      7 C         138.4693  138.2198  165.7157 C.ar    1  UNL1        0.0016
      8 C         139.4502  139.0398  164.9312 C.ar    1  UNL1        0.0032
      9 C         140.1586  140.1893  165.5845 C.ar    1  UNL1        0.0028
     10 C         139.8861  140.5188  167.0222 C.ar    1  UNL1        0.0309
     11 C         139.7227  138.7102  163.4934 C.ar    1  UNL1        0.0396
     12 C         138.8209  137.9332  162.5808 C.ar    1  UNL1        0.1216
     13 N         139.4856  137.8425  161.2392 N.ar    1  UNL1       -0.1676
     14 N         140.7983  138.5636  161.3227 N.ar    1  UNL1       -0.2473
     15 C         141.7904  138.7208  160.2086 C.3     1  UNL1        0.1538
     16 C         140.9448  139.0998  162.7159 C.ar    1  UNL1        0.0967
     17 C         141.0303  143.1474  169.7666 C.2     1  UNL1        0.2455
     18 N         140.2651  144.3788  170.1515 N.am    1  UNL1       -0.3252
     19 O         142.5038  143.0656  170.0349 O.2     1  UNL1       -0.2703
     20 H         139.2980  144.4325  169.9754 H       1  UNL1        0.1453
     21 H         140.7300  145.1333  170.5803 H       1  UNL1        0.1453
     22 N         141.5753  142.4884  166.8910 N.pl3   1  UNL1       -0.3325
     23 H         141.2797  143.3135  166.4427 H       1  UNL1        0.1468
     24 C         143.0067  142.0512  166.7897 C.3     1  UNL1        0.0870
     25 C         143.7336  142.1610  165.4822 C.3     1  UNL1        0.0195
     26 C         145.0030  140.2903  164.2019 C.3     1  UNL1        0.0001
     27 C         143.7259  141.0096  164.5208 C.3     1  UNL1        0.0017
     28 C         144.4682  143.4222  165.1361 C.3     1  UNL1        0.0017
     29 C         143.7980  144.4768  164.3063 C.3     1  UNL1        0.0001
@<TRIPOS>BOND
     1    26    27    1
     2    27    25    1
     3    25    28    1
     4    28    29    1
     5    25    24    1
     6    24    22    1
     7    22     1    1
     8     1     2   ar
     9     2    17    1
    10    17    18   am
    11    17    19    2
    12     2     3   ar
    13     3     4   ar
    14     4     5   ar
    15     5     6   ar
    16     6     7   ar
    17     7     8   ar
    18     8    11    1
    19    11    12   ar
    20    12    13   ar
    21    13    14   ar
    22    14    15    1
    23    14    16   ar
    24     8     9   ar
    25     9    10   ar
    26    10     1   ar
    27    10     5   ar
    28    16    11   ar
    29    22    23    1
    30    18    20    1
    31    18    21    1
@<TRIPOS>MOLECULE
*****
 29 31 0 0 0
SMALL
GASTEIGER

@<TRIPOS>ATOM
      1 C         141.1451  141.7365  168.0050 C.ar    1  UNL1        0.0519
      2 C         141.4496  141.6037  169.4678 C.ar    1  UNL1        0.0853
      3 C         140.6790  140.6296  170.3088 C.ar    1  UNL1        0.1045
      4 N         139.6040  139.7883  169.6870 N.ar    1  UNL1       -0.2436
      5 C         139.2996  139.9211  168.2242 C.ar    1  UNL1        0.0825
      6 C         138.2246  139.0798  167.6025 C.ar    1  UNL1        0.0191
      7 C         137.9202  139.2126  166.1397 C.ar    1  UNL1        0.0016
      8 C         138.6907  140.1868  165.2987 C.ar    1  UNL1        0.0032
      9 C         139.7657  141.0281  165.9205 C.ar    1  UNL1        0.0028
     10 C         140.0701  140.8952  167.3832 C.ar    1  UNL1        0.0309
     11 C         138.3863  140.3196  163.8359 C.ar    1  UNL1        0.0396
     12 C         137.4749  141.3356  163.2138 C.ar    1  UNL1        0.1216
     13 N         137.4650  141.1037  161.7318 N.ar    1  UNL1       -0.1676
     14 N         138.3704  139.9443  161.4381 N.ar    1  UNL1       -0.2473
     15 C         138.6563  139.3703  160.0821 C.3     1  UNL1        0.1538
     16 C         138.9398  139.4597  162.7385 C.ar    1  UNL1        0.0967
     17 C         142.5246  142.4450  170.0896 C.2     1  UNL1        0.2455
     18 N         143.9329  141.9331  170.1567 N.am    1  UNL1       -0.3252
     19 O         142.1912  143.7982  170.6443 O.2     1  UNL1       -0.2703
     20 H         144.1517  141.0449  169.7926 H       1  UNL1        0.1453
     21 H         144.6385  142.4853  170.5648 H       1  UNL1        0.1453
     22 N         141.9157  142.7107  167.1640 N.pl3   1  UNL1       -0.3325
     23 H         141.6074  143.6421  167.0825 H       1  UNL1        0.1468
     24 C         143.1560  142.2657  166.4473 C.3     1  UNL1        0.0870
     25 C         143.5197  142.8778  165.1270 C.3     1  UNL1        0.0195
     26 C         142.5311  144.9171  163.8567 C.3     1  UNL1        0.0001
     27 C         142.4528  143.4737  164.2573 C.3     1  UNL1        0.0017
     28 C         144.9504  142.8940  164.6766 C.3     1  UNL1        0.0017
     29 C         145.4716  141.7980  163.7950 C.3     1  UNL1        0.0001
@<TRIPOS>BOND
     1    26    27    1
     2    27    25    1
     3    25    28    1
     4    28    29    1
     5    25    24    1
     6    24    22    1
     7    22     1    1
     8     1     2   ar
     9     2    17    1
    10    17    18   am
    11    17    19    2
    12     2     3   ar
    13     3     4   ar
    14     4     5   ar
    15     5     6   ar
    16     6     7   ar
    17     7     8   ar
    18     8    11    1
    19    11    12   ar
    20    12    13   ar
    21    13    14   ar
    22    14    15    1
    23    14    16   ar
    24     8     9   ar
    25     9    10   ar
    26    10     1   ar
    27    10     5   ar
    28    16    11   ar
    29    22    23    1
    30    18    20    1
    31    18    21    1
@<TRIPOS>MOLECULE
*****
 29 31 0 0 0
SMALL
GASTEIGER

@<TRIPOS>ATOM
      1 C         139.8933  141.2993  166.8693 C.ar    1  UNL1        0.0519
      2 C         139.5155  140.1525  167.7592 C.ar    1  UNL1        0.0853
      3 C         138.5485  139.1135  167.2739 C.ar    1  UNL1        0.1045
      4 N         137.9595  139.2213  165.8987 N.ar    1  UNL1       -0.2436
      5 C         138.3373  140.3681  165.0087 C.ar    1  UNL1        0.0825
      6 C         137.7482  140.4759  163.6334 C.ar    1  UNL1        0.0191
      7 C         138.1260  141.6227  162.7435 C.ar    1  UNL1        0.0016
      8 C         139.0930  142.6617  163.2288 C.ar    1  UNL1        0.0032
      9 C         139.6820  142.5539  164.6040 C.ar    1  UNL1        0.0028
     10 C         139.3042  141.4071  165.4940 C.ar    1  UNL1        0.0309
     11 C         139.4708  143.8086  162.3387 C.ar    1  UNL1        0.0396
     12 C         139.1108  145.2485  162.5554 C.ar    1  UNL1        0.1216
     13 N         139.6924  146.0467  161.4265 N.ar    1  UNL1       -0.1676
     14 N         140.4119  145.1000  160.5120 N.ar    1  UNL1       -0.2473
     15 C         141.1404  145.4713  159.2544 C.3     1  UNL1        0.1538
     16 C         140.2749  143.7168  161.0758 C.ar    1  UNL1        0.0967
     17 C         140.1046  140.0447  169.1345 C.2     1  UNL1        0.2455
     18 N         139.2247  140.1893  170.3407 N.am    1  UNL1       -0.3252
     19 O         141.5734  139.7923  169.3036 O.2     1  UNL1       -0.2703
     20 H         138.2606  140.3549  170.2298 H       1  UNL1        0.1453
     21 H         139.6113  140.1185  171.2434 H       1  UNL1        0.1453
     22 N         140.8602  142.3383  167.3546 N.pl3   1  UNL1       -0.3325
     23 H         140.5257  143.1772  167.7465 H       1  UNL1        0.1468
     24 C         142.3369  142.0992  167.2426 C.3     1  UNL1        0.0870
     25 C         142.9740  141.9618  165.8916 C.3     1  UNL1        0.0195
     26 C         142.9951  139.3738  166.1195 C.3     1  UNL1        0.0001
     27 C         143.1374  140.6046  165.2741 C.3     1  UNL1        0.0017
     28 C         143.4478  143.1815  165.1582 C.3     1  UNL1        0.0017
     29 C         143.1391  143.3467  163.6996 C.3     1  UNL1        0.0001
@<TRIPOS>BOND
     1    26    27    1
     2    27    25    1
     3    25    28    1
     4    28    29    1
     5    25    24    1
     6    24    22    1
     7    22     1    1
     8     1     2   ar
     9     2    17    1
    10    17    18   am
    11    17    19    2
    12     2     3   ar
    13     3     4   ar
    14     4     5   ar
    15     5     6   ar
    16     6     7   ar
    17     7     8   ar
    18     8    11    1
    19    11    12   ar
    20    12    13   ar
    21    13    14   ar
    22    14    15    1
    23    14    16   ar
    24     8     9   ar
    25     9    10   ar
    26    10     1   ar
    27    10     5   ar
    28    16    11   ar
    29    22    23    1
    30    18    20    1
    31    18    21    1
@<TRIPOS>MOLECULE
*****
 29 31 0 0 0
SMALL
GASTEIGER

@<TRIPOS>ATOM
      1 C         141.3048  139.2057  163.8252 C.ar    1  UNL1        0.0519
      2 C         140.9418  138.4608  162.5749 C.ar    1  UNL1        0.0853
      3 C         139.6411  137.7180  162.4952 C.ar    1  UNL1        0.1045
      4 N         138.7033  137.7201  163.6658 N.ar    1  UNL1       -0.2436
      5 C         139.0662  138.4650  164.9163 C.ar    1  UNL1        0.0825
      6 C         138.1284  138.4671  166.0869 C.ar    1  UNL1        0.0191
      7 C         138.4913  139.2120  167.3372 C.ar    1  UNL1        0.0016
      8 C         139.7921  139.9548  167.4169 C.ar    1  UNL1        0.0032
      9 C         140.7299  139.9527  166.2462 C.ar    1  UNL1        0.0028
     10 C         140.3669  139.2078  164.9959 C.ar    1  UNL1        0.0309
     11 C         140.1550  140.6998  168.6673 C.ar    1  UNL1        0.0396
     12 C         139.3352  140.7692  169.9216 C.ar    1  UNL1        0.1216
     13 N         140.0748  141.6184  170.9124 N.ar    1  UNL1       -0.1676
     14 N         141.3519  142.0737  170.2705 N.ar    1  UNL1       -0.2473
     15 C         142.3961  142.9440  170.9048 C.3     1  UNL1        0.1538
     16 C         141.4014  141.5060  168.8830 C.ar    1  UNL1        0.0967
     17 C         141.8797  138.4587  161.4041 C.2     1  UNL1        0.2455
     18 N         142.8618  137.3381  161.2320 N.am    1  UNL1       -0.3252
     19 O         141.8353  139.5771  160.4056 O.2     1  UNL1       -0.2703
     20 H         142.8909  136.6040  161.8874 H       1  UNL1        0.1453
     21 H         143.4773  137.3366  160.4636 H       1  UNL1        0.1453
     22 N         142.6055  139.9485  163.9049 N.pl3   1  UNL1       -0.3325
     23 H         143.4148  139.4907  164.2286 H       1  UNL1        0.1468
     24 C         142.6732  141.3888  163.4912 C.3     1  UNL1        0.0870
     25 C         142.4679  142.4717  164.5086 C.3     1  UNL1        0.0195
     26 C         144.5873  143.6131  165.4862 C.3     1  UNL1        0.0001
     27 C         143.4506  142.6447  165.6286 C.3     1  UNL1        0.0017
     28 C         141.2798  143.3817  164.4060 C.3     1  UNL1        0.0017
     29 C         140.2383  143.3798  165.4854 C.3     1  UNL1        0.0001
@<TRIPOS>BOND
     1    26    27    1
     2    27    25    1
     3    25    28    1
     4    28    29    1
     5    25    24    1
     6    24    22    1
     7    22     1    1
     8     1     2   ar
     9     2    17    1
    10    17    18   am
    11    17    19    2
    12     2     3   ar
    13     3     4   ar
    14     4     5   ar
    15     5     6   ar
    16     6     7   ar
    17     7     8   ar
    18     8    11    1
    19    11    12   ar
    20    12    13   ar
    21    13    14   ar
    22    14    15    1
    23    14    16   ar
    24     8     9   ar
    25     9    10   ar
    26    10     1   ar
    27    10     5   ar
    28    16    11   ar
    29    22    23    1
    30    18    20    1
    31    18    21    1
@<TRIPOS>MOLECULE
*****
 29 31 0 0 0
SMALL
GASTEIGER

@<TRIPOS>ATOM
      1 C         141.6768  141.5692  167.8498 C.ar    1  UNL1        0.0519
      2 C         141.3310  141.2540  169.2749 C.ar    1  UNL1        0.0853
      3 C         141.7727  139.9565  169.8844 C.ar    1  UNL1        0.1045
      4 N         142.5602  138.9744  169.0689 N.ar    1  UNL1       -0.2436
      5 C         142.9060  139.2896  167.6437 C.ar    1  UNL1        0.0825
      6 C         143.6935  138.3074  166.8281 C.ar    1  UNL1        0.0191
      7 C         144.0393  138.6227  165.4030 C.ar    1  UNL1        0.0016
      8 C         143.5976  139.9202  164.7935 C.ar    1  UNL1        0.0032
      9 C         142.8102  140.9023  165.6090 C.ar    1  UNL1        0.0028
     10 C         142.4644  140.5871  167.0341 C.ar    1  UNL1        0.0309
     11 C         143.9435  140.2354  163.3683 C.ar    1  UNL1        0.0396
     12 C         144.9131  141.2830  162.9073 C.ar    1  UNL1        0.1216
     13 N         144.9494  141.2535  161.4081 N.ar    1  UNL1       -0.1676
     14 N         144.0021  140.1876  160.9424 N.ar    1  UNL1       -0.2473
     15 C         143.7251  139.8162  159.5158 C.3     1  UNL1        0.1538
     16 C         143.3805  139.5585  162.1539 C.ar    1  UNL1        0.0967
     17 C         140.5435  142.2362  170.0905 C.2     1  UNL1        0.2455
     18 N         139.2188  141.8378  170.6705 N.am    1  UNL1       -0.3252
     19 O         141.0807  143.6167  170.3261 O.2     1  UNL1       -0.2703
     20 H         138.8662  140.9317  170.5159 H       1  UNL1        0.1453
     21 H         138.7019  142.4824  171.2058 H       1  UNL1        0.1453
     22 N         141.2352  142.8667  167.2402 N.pl3   1  UNL1       -0.3325
     23 H         141.7641  143.6842  167.3857 H       1  UNL1        0.1468
     24 C         139.9876  142.9185  166.4089 C.3     1  UNL1        0.0870
     25 C         139.9377  143.7836  165.1845 C.3     1  UNL1        0.0195
     26 C         141.6288  145.1928  163.8046 C.3     1  UNL1        0.0001
     27 C         141.1246  143.8591  164.2706 C.3     1  UNL1        0.0017
     28 C         138.7006  144.5733  164.8741 C.3     1  UNL1        0.0017
     29 C         137.8797  144.2364  163.6647 C.3     1  UNL1        0.0001
@<TRIPOS>BOND
     1    26    27    1
     2    27    25    1
     3    25    28    1
     4    28    29    1
     5    25    24    1
     6    24    22    1
     7    22     1    1
     8     1     2   ar
     9     2    17    1
    10    17    18   am
    11    17    19    2
    12     2     3   ar
    13     3     4   ar
    14     4     5   ar
    15     5     6   ar
    16     6     7   ar
    17     7     8   ar
    18     8    11    1
    19    11    12   ar
    20    12    13   ar
    21    13    14   ar
    22    14    15    1
    23    14    16   ar
    24     8     9   ar
    25     9    10   ar
    26    10     1   ar
    27    10     5   ar
    28    16    11   ar
    29    22    23    1
    30    18    20    1
    31    18    21    1
@<TRIPOS>MOLECULE
*****
 29 31 0 0 0
SMALL
GASTEIGER

@<TRIPOS>ATOM
      1 C         141.4361  143.4841  162.0223 C.ar    1  UNL1        0.0519
      2 C         141.1271  144.3211  160.8166 C.ar    1  UNL1        0.0853
      3 C         140.0220  145.3340  160.8699 C.ar    1  UNL1        0.1045
      4 N         139.2260  145.5099  162.1290 N.ar    1  UNL1       -0.2436
      5 C         139.5350  144.6729  163.3348 C.ar    1  UNL1        0.0825
      6 C         138.7389  144.8488  164.5939 C.ar    1  UNL1        0.0191
      7 C         139.0479  144.0117  165.7996 C.ar    1  UNL1        0.0016
      8 C         140.1530  142.9988  165.7463 C.ar    1  UNL1        0.0032
      9 C         140.9490  142.8229  164.4872 C.ar    1  UNL1        0.0028
     10 C         140.6400  143.6600  163.2815 C.ar    1  UNL1        0.0309
     11 C         140.4620  142.1618  166.9522 C.ar    1  UNL1        0.0396
     12 C         140.3118  140.6728  167.0538 C.ar    1  UNL1        0.1216
     13 N         140.7323  140.2575  168.4324 N.ar    1  UNL1       -0.1676
     14 N         141.1425  141.4899  169.1828 N.ar    1  UNL1       -0.2473
     15 C         141.6336  141.5371  170.5994 C.3     1  UNL1        0.1538
     16 C         140.9754  142.6668  168.2679 C.ar    1  UNL1        0.0967
     17 C         141.9232  144.1452  159.5574 C.2     1  UNL1        0.2455
     18 N         142.2338  145.3323  158.6946 N.am    1  UNL1       -0.3252
     19 O         142.4085  142.7824  159.1612 O.2     1  UNL1       -0.2703
     20 H         141.9152  146.2267  158.9547 H       1  UNL1        0.1453
     21 H         142.7563  145.2169  157.8682 H       1  UNL1        0.1453
     22 N         142.5412  142.4712  161.9690 N.pl3   1  UNL1       -0.3325
     23 H         142.3322  141.5228  161.8072 H       1  UNL1        0.1468
     24 C         143.9646  142.9033  162.1622 C.3     1  UNL1        0.0870
     25 C         144.5893  142.8398  163.5245 C.3     1  UNL1        0.0195
     26 C         145.1360  140.3308  163.9189 C.3     1  UNL1        0.0001
     27 C         145.5811  141.7613  163.8453 C.3     1  UNL1        0.0017
     28 C         144.2220  143.8550  164.5660 C.3     1  UNL1        0.0017
     29 C         143.7909  145.2310  164.1529 C.3     1  UNL1        0.0001
@<TRIPOS>BOND
     1    26    27    1
     2    27    25    1
     3    25    28    1
     4    28    29    1
     5    25    24    1
     6    24    22    1
     7    22     1    1
     8     1     2   ar
     9     2    17    1
    10    17    18   am
    11    17    19    2
    12     2     3   ar
    13     3     4   ar
    14     4     5   ar
    15     5     6   ar
    16     6     7   ar
    17     7     8   ar
    18     8    11    1
    19    11    12   ar
    20    12    13   ar
    21    13    14   ar
    22    14    15    1
    23    14    16   ar
    24     8     9   ar
    25     9    10   ar
    26    10     1   ar
    27    10     5   ar
    28    16    11   ar
    29    22    23    1
    30    18    20    1
    31    18    21    1
@<TRIPOS>MOLECULE
*****
 29 31 0 0 0
SMALL
GASTEIGER

@<TRIPOS>ATOM
      1 C         141.0534  140.4499  168.0031 C.ar    1  UNL1        0.0519
      2 C         140.8944  141.0918  169.3494 C.ar    1  UNL1        0.0853
      3 C         141.7328  142.2798  169.7176 C.ar    1  UNL1        0.1045
      4 N         142.7303  142.8260  168.7395 N.ar    1  UNL1       -0.2436
      5 C         142.8894  142.1840  167.3931 C.ar    1  UNL1        0.0825
      6 C         143.8869  142.7302  166.4150 C.ar    1  UNL1        0.0191
      7 C         144.0459  142.0883  165.0687 C.ar    1  UNL1        0.0016
      8 C         143.2075  140.9002  164.7005 C.ar    1  UNL1        0.0032
      9 C         142.2100  140.3541  165.6786 C.ar    1  UNL1        0.0028
     10 C         142.0510  140.9960  167.0249 C.ar    1  UNL1        0.0309
     11 C         143.3666  140.2583  163.3541 C.ar    1  UNL1        0.0396
     12 C         143.5442  138.7921  163.0918 C.ar    1  UNL1        0.1216
     13 N         143.6634  138.5975  161.6093 N.ar    1  UNL1       -0.1676
     14 N         143.5595  139.9435  160.9553 N.ar    1  UNL1       -0.2473
     15 C         143.6271  140.2153  159.4817 C.3     1  UNL1        0.1538
     16 C         143.3761  140.9699  162.0337 C.ar    1  UNL1        0.0967
     17 C         139.8968  140.5456  170.3276 C.2     1  UNL1        0.2455
     18 N         140.2463  139.3539  171.1687 N.am    1  UNL1       -0.3252
     19 O         138.5499  141.1913  170.4646 O.2     1  UNL1       -0.2703
     20 H         141.1304  138.9301  171.0787 H       1  UNL1        0.1453
     21 H         139.5917  138.9954  171.8107 H       1  UNL1        0.1453
     22 N         140.2150  139.2618  167.6348 N.pl3   1  UNL1       -0.3325
     23 H         140.5644  138.3515  167.7709 H       1  UNL1        0.1468
     24 C         138.8441  139.4607  167.0592 C.3     1  UNL1        0.0870
     25 C         138.6098  139.2557  165.5919 C.3     1  UNL1        0.0195
     26 C         140.1814  137.5803  164.3782 C.3     1  UNL1        0.0001
     27 C         138.8453  137.9085  164.9758 C.3     1  UNL1        0.0017
     28 C         138.1401  140.3980  164.7406 C.3     1  UNL1        0.0017
     29 C         138.8898  141.6972  164.7486 C.3     1  UNL1        0.0001
@<TRIPOS>BOND
     1    26    27    1
     2    27    25    1
     3    25    28    1
     4    28    29    1
     5    25    24    1
     6    24    22    1
     7    22     1    1
     8     1     2   ar
     9     2    17    1
    10    17    18   am
    11    17    19    2
    12     2     3   ar
    13     3     4   ar
    14     4     5   ar
    15     5     6   ar
    16     6     7   ar
    17     7     8   ar
    18     8    11    1
    19    11    12   ar
    20    12    13   ar
    21    13    14   ar
    22    14    15    1
    23    14    16   ar
    24     8     9   ar
    25     9    10   ar
    26    10     1   ar
    27    10     5   ar
    28    16    11   ar
    29    22    23    1
    30    18    20    1
    31    18    21    1
