@<TRIPOS>MOLECULE
*****
 37 41 0 0 0
SMALL
GASTEIGER

@<TRIPOS>ATOM
      1 C         137.7147  141.1321  161.6675 C.3     1  UNL1        0.2588
      2 O         138.0600  141.8940  159.2078 O.2     1  UNL1       -0.2708
      3 C         138.4544  141.9539  160.6537 C.2     1  UNL1        0.2689
      4 N         139.5884  142.8354  161.0860 N.am    1  UNL1       -0.2664
      5 H         139.8472  142.8747  162.0350 H       1  UNL1        0.1564
      6 C         140.3281  143.6571  160.0722 C.ar    1  UNL1        0.1344
      7 C         141.6693  143.2056  159.5751 C.ar    1  UNL1        0.0368
      8 C         142.4089  144.0273  158.5613 C.ar    1  UNL1        0.0341
      9 C         141.8074  145.3006  158.0448 C.ar    1  UNL1        0.1593
     10 F         142.5470  146.1223  157.0311 F       1  UNL1       -0.2025
     11 C         140.4662  145.7522  158.5420 C.ar    1  UNL1        0.1298
     12 N         139.7265  144.9304  159.5557 N.ar    1  UNL1       -0.2267
     13 C         137.6123  139.6454  161.4974 C.3     1  UNL1        0.1261
     14 N         138.7203  138.7571  161.9805 N.3     1  UNL1       -0.2650
     15 C         140.1879  138.6402  161.6930 C.3     1  UNL1        0.1033
     16 C         140.2872  137.5009  162.6637 C.3     1  UNL1        0.1423
     17 O         141.3952  136.6126  163.1467 O.3     1  UNL1       -0.3816
     18 C         138.8197  137.6178  162.9511 C.3     1  UNL1        0.1033
     19 H         142.2238  136.8619  162.7085 H       1  UNL1        0.2105
     20 O         137.0775  141.7972  162.8514 O.3     1  UNL1       -0.4529
     21 C         137.9273  142.5274  163.8489 C.ar    1  UNL1        0.2312
     22 N         138.0649  144.0188  163.7678 N.ar    1  UNL1       -0.1892
     23 C         138.9146  144.7489  164.7652 C.ar    1  UNL1        0.2029
     24 N         139.6268  143.9875  165.8437 N.ar    1  UNL1       -0.2046
     25 C         139.4892  142.4961  165.9248 C.ar    1  UNL1        0.1716
     26 C         138.6394  141.7660  164.9273 C.ar    1  UNL1        0.1098
     27 C         138.6923  140.3033  165.2558 C.ar    1  UNL1        0.1283
     28 N         139.5747  140.1294  166.4562 N.ar    1  UNL1       -0.1619
     29 N         140.0672  141.4846  166.8697 N.ar    1  UNL1       -0.2089
     30 C         140.9779  141.7770  168.0251 C.ar    1  UNL1        0.1222
     31 C         140.4489  141.7289  169.4279 C.ar    1  UNL1        0.1585
     32 F         139.0092  141.3882  169.6753 F       1  UNL1       -0.2026
     33 C         141.3596  142.0213  170.5834 C.ar    1  UNL1        0.0313
     34 C         142.7993  142.3619  170.3361 C.ar    1  UNL1        0.0033
     35 C         143.3283  142.4101  168.9333 C.ar    1  UNL1        0.0131
     36 C         142.4176  142.1177  167.7779 C.ar    1  UNL1        0.0776
     37 CL        142.9467  142.1659  166.3751 Cl      1  UNL1       -0.0806
@<TRIPOS>BOND
     1     2     3    2
     2     3     4   am
     3     4     6    1
     4     6     7   ar
     5     7     8   ar
     6     8     9   ar
     7     9    10    1
     8     9    11   ar
     9    11    12   ar
    10     3     1    1
    11     1    13    1
    12    13    14    1
    13    14    15    1
    14    15    16    1
    15    16    17    1
    16    16    18    1
    17     1    20    1
    18    20    21    1
    19    21    22   ar
    20    22    23   ar
    21    23    24   ar
    22    24    25   ar
    23    25    26   ar
    24    26    27   ar
    25    27    28   ar
    26    28    29   ar
    27    29    30    1
    28    30    31   ar
    29    31    32    1
    30    31    33   ar
    31    33    34   ar
    32    34    35   ar
    33    35    36   ar
    34    36    37    1
    35    12     6   ar
    36    18    14    1
    37    26    21   ar
    38    36    30   ar
    39    29    25   ar
    40     4     5    1
    41    17    19    1
@<TRIPOS>MOLECULE
*****
 37 41 0 0 0
SMALL
GASTEIGER

@<TRIPOS>ATOM
      1 C         143.9199  143.1271  161.6595 C.3     1  UNL1        0.2588
      2 O         143.7106  142.6478  159.1146 O.2     1  UNL1       -0.2708
      3 C         143.2816  143.4116  160.3322 C.2     1  UNL1        0.2689
      4 N         142.2143  144.4599  160.2226 N.am    1  UNL1       -0.2664
      5 H         141.9328  144.9612  161.0217 H       1  UNL1        0.1564
      6 C         141.5760  144.7444  158.8953 C.ar    1  UNL1        0.1344
      7 C         140.2967  144.0592  158.5161 C.ar    1  UNL1        0.0368
      8 C         139.6584  144.3437  157.1888 C.ar    1  UNL1        0.0341
      9 C         140.2994  145.3135  156.2408 C.ar    1  UNL1        0.1593
     10 F         139.6612  145.5980  154.9136 F       1  UNL1       -0.2025
     11 C         141.5787  145.9987  156.6201 C.ar    1  UNL1        0.1298
     12 N         142.2170  145.7141  157.9474 N.ar    1  UNL1       -0.2267
     13 C         144.7758  141.9077  161.8342 C.3     1  UNL1        0.1261
     14 N         144.1520  140.5438  161.8098 N.3     1  UNL1       -0.2650
     15 C         144.1151  139.4117  160.8264 C.3     1  UNL1        0.1033
     16 C         143.2698  138.6149  161.7753 C.3     1  UNL1        0.1423
     17 O         142.6460  137.2510  161.7510 O.3     1  UNL1       -0.3816
     18 C         143.3066  139.7469  162.7587 C.3     1  UNL1        0.1033
     19 H         142.8601  136.8125  160.9127 H       1  UNL1        0.2105
     20 O         143.7022  144.0620  162.8122 O.3     1  UNL1       -0.4529
     21 C         142.4815  143.9206  163.6724 C.ar    1  UNL1        0.2312
     22 N         141.2269  144.6643  163.3220 N.ar    1  UNL1       -0.1892
     23 C         140.0062  144.5229  164.1822 C.ar    1  UNL1        0.2029
     24 N         140.0402  143.6378  165.3928 N.ar    1  UNL1       -0.2046
     25 C         141.2948  142.8941  165.7431 C.ar    1  UNL1        0.1716
     26 C         142.5155  143.0355  164.8829 C.ar    1  UNL1        0.1098
     27 C         143.6004  142.1849  165.4742 C.ar    1  UNL1        0.1283
     28 N         143.0501  141.5177  166.6998 N.ar    1  UNL1       -0.1619
     29 N         141.6253  141.9561  166.8660 N.ar    1  UNL1       -0.2089
     30 C         140.6942  141.5310  167.9626 C.ar    1  UNL1        0.1222
     31 C         140.6174  142.3268  169.2318 C.ar    1  UNL1        0.1585
     32 F         141.4716  143.5477  169.4044 F       1  UNL1       -0.2026
     33 C         139.6863  141.9017  170.3283 C.ar    1  UNL1        0.0313
     34 C         138.8321  140.6809  170.1558 C.ar    1  UNL1        0.0033
     35 C         138.9090  139.8851  168.8866 C.ar    1  UNL1        0.0131
     36 C         139.8400  140.3102  167.7900 C.ar    1  UNL1        0.0776
     37 CL        139.9168  139.5143  166.5209 Cl      1  UNL1       -0.0806
@<TRIPOS>BOND
     1     2     3    2
     2     3     4   am
     3     4     6    1
     4     6     7   ar
     5     7     8   ar
     6     8     9   ar
     7     9    10    1
     8     9    11   ar
     9    11    12   ar
    10     3     1    1
    11     1    13    1
    12    13    14    1
    13    14    15    1
    14    15    16    1
    15    16    17    1
    16    16    18    1
    17     1    20    1
    18    20    21    1
    19    21    22   ar
    20    22    23   ar
    21    23    24   ar
    22    24    25   ar
    23    25    26   ar
    24    26    27   ar
    25    27    28   ar
    26    28    29   ar
    27    29    30    1
    28    30    31   ar
    29    31    32    1
    30    31    33   ar
    31    33    34   ar
    32    34    35   ar
    33    35    36   ar
    34    36    37    1
    35    12     6   ar
    36    18    14    1
    37    26    21   ar
    38    36    30   ar
    39    29    25   ar
    40     4     5    1
    41    17    19    1
@<TRIPOS>MOLECULE
*****
 37 41 0 0 0
SMALL
GASTEIGER

@<TRIPOS>ATOM
      1 C         140.6536  144.4025  160.9097 C.3     1  UNL1        0.2588
      2 O         139.3614  143.9451  158.7026 O.2     1  UNL1       -0.2708
      3 C         140.4850  144.6171  159.4346 C.2     1  UNL1        0.2689
      4 N         141.4399  145.5038  158.6918 N.am    1  UNL1       -0.2664
      5 H         142.1773  145.9449  159.1723 H       1  UNL1        0.1564
      6 C         141.2713  145.7185  157.2169 C.ar    1  UNL1        0.1344
      7 C         142.2253  145.0789  156.2520 C.ar    1  UNL1        0.0368
      8 C         142.0567  145.2936  154.7771 C.ar    1  UNL1        0.0341
      9 C         140.9341  146.1478  154.2669 C.ar    1  UNL1        0.1593
     10 F         140.7655  146.3624  152.7920 F       1  UNL1       -0.2025
     11 C         139.9801  146.7873  155.2318 C.ar    1  UNL1        0.1298
     12 N         140.1488  146.5726  156.7068 N.ar    1  UNL1       -0.2267
     13 C         141.8480  144.9693  161.6183 C.3     1  UNL1        0.1261
     14 N         143.0587  144.1144  161.8489 N.3     1  UNL1       -0.2650
     15 C         144.1101  144.0300  162.9155 C.3     1  UNL1        0.1033
     16 C         144.7710  142.9054  162.1751 C.3     1  UNL1        0.1423
     17 O         145.9818  142.0505  162.4057 O.3     1  UNL1       -0.3816
     18 C         143.7197  142.9897  161.1085 C.3     1  UNL1        0.1033
     19 H         146.4110  142.3147  163.2344 H       1  UNL1        0.2105
     20 O         139.6278  143.6211  161.6759 O.3     1  UNL1       -0.4529
     21 C         139.6253  143.6554  163.1756 C.ar    1  UNL1        0.2312
     22 N         138.8380  144.7064  163.9004 N.ar    1  UNL1       -0.1892
     23 C         138.8355  144.7407  165.4000 C.ar    1  UNL1        0.2029
     24 N         139.6202  143.7238  166.1747 N.ar    1  UNL1       -0.2046
     25 C         140.4075  142.6727  165.4499 C.ar    1  UNL1        0.1716
     26 C         140.4100  142.6385  163.9503 C.ar    1  UNL1        0.1098
     27 C         141.2740  141.4924  163.5142 C.ar    1  UNL1        0.1283
     28 N         141.8054  140.8184  164.7444 N.ar    1  UNL1       -0.1619
     29 N         141.2699  141.5478  165.9407 N.ar    1  UNL1       -0.2089
     30 C         141.5479  141.2115  167.3758 C.ar    1  UNL1        0.1222
     31 C         142.7688  141.7611  168.0520 C.ar    1  UNL1        0.1585
     32 F         143.7118  142.6471  167.2931 F       1  UNL1       -0.2026
     33 C         143.0469  141.4247  169.4871 C.ar    1  UNL1        0.0313
     34 C         142.1040  140.5387  170.2460 C.ar    1  UNL1        0.0033
     35 C         140.8831  139.9891  169.5698 C.ar    1  UNL1        0.0131
     36 C         140.6051  140.3255  168.1347 C.ar    1  UNL1        0.0776
     37 CL        139.3842  139.7758  167.4585 Cl      1  UNL1       -0.0806
@<TRIPOS>BOND
     1     2     3    2
     2     3     4   am
     3     4     6    1
     4     6     7   ar
     5     7     8   ar
     6     8     9   ar
     7     9    10    1
     8     9    11   ar
     9    11    12   ar
    10     3     1    1
    11     1    13    1
    12    13    14    1
    13    14    15    1
    14    15    16    1
    15    16    17    1
    16    16    18    1
    17     1    20    1
    18    20    21    1
    19    21    22   ar
    20    22    23   ar
    21    23    24   ar
    22    24    25   ar
    23    25    26   ar
    24    26    27   ar
    25    27    28   ar
    26    28    29   ar
    27    29    30    1
    28    30    31   ar
    29    31    32    1
    30    31    33   ar
    31    33    34   ar
    32    34    35   ar
    33    35    36   ar
    34    36    37    1
    35    12     6   ar
    36    18    14    1
    37    26    21   ar
    38    36    30   ar
    39    29    25   ar
    40     4     5    1
    41    17    19    1
@<TRIPOS>MOLECULE
*****
 37 41 0 0 0
SMALL
GASTEIGER

@<TRIPOS>ATOM
      1 C         139.5597  138.2929  161.7881 C.3     1  UNL1        0.2588
      2 O         139.3263  138.7187  159.2358 O.2     1  UNL1       -0.2708
      3 C         140.1869  138.4503  160.4346 C.2     1  UNL1        0.2689
      4 N         141.6748  138.3393  160.2800 N.am    1  UNL1       -0.2664
      5 H         142.2397  138.1632  161.0669 H       1  UNL1        0.1564
      6 C         142.3021  138.4967  158.9266 C.ar    1  UNL1        0.1344
      7 C         142.8312  139.8326  158.4960 C.ar    1  UNL1        0.0368
      8 C         143.4584  139.9899  157.1426 C.ar    1  UNL1        0.0341
      9 C         143.5566  138.8114  156.2197 C.ar    1  UNL1        0.1593
     10 F         144.1838  138.9688  154.8663 F       1  UNL1       -0.2025
     11 C         143.0275  137.4755  156.6504 C.ar    1  UNL1        0.1298
     12 N         142.4002  137.3182  158.0039 N.ar    1  UNL1       -0.2267
     13 C         138.2033  138.8736  162.0583 C.3     1  UNL1        0.1261
     14 N         138.0252  140.3612  162.1307 N.3     1  UNL1       -0.2650
     15 C         137.3745  141.3058  163.0974 C.3     1  UNL1        0.1033
     16 C         137.7734  142.4650  162.2332 C.3     1  UNL1        0.1423
     17 O         137.5953  143.9527  162.3056 O.3     1  UNL1       -0.3816
     18 C         138.4241  141.5206  161.2666 C.3     1  UNL1        0.1033
     19 H         137.1044  144.1807  163.1105 H       1  UNL1        0.2105
     20 O         140.2889  137.5548  162.8714 O.3     1  UNL1       -0.4529
     21 C         141.2234  138.2928  163.7837 C.ar    1  UNL1        0.2312
     22 N         142.6771  138.4100  163.4329 N.ar    1  UNL1       -0.1892
     23 C         143.6115  139.1479  164.3452 C.ar    1  UNL1        0.2029
     24 N         143.0923  139.7686  165.6082 N.ar    1  UNL1       -0.2046
     25 C         141.6386  139.6514  165.9589 C.ar    1  UNL1        0.1716
     26 C         140.7042  138.9135  165.0466 C.ar    1  UNL1        0.1098
     27 C         139.3320  138.9619  165.6508 C.ar    1  UNL1        0.1283
     28 N         139.4185  139.7298  166.9364 N.ar    1  UNL1       -0.1619
     29 N         140.8440  140.1559  167.1268 N.ar    1  UNL1       -0.2089
     30 C         141.3808  140.9475  168.2823 C.ar    1  UNL1        0.1222
     31 C         141.0302  142.3990  168.4244 C.ar    1  UNL1        0.1585
     32 F         140.1429  143.0590  167.4109 F       1  UNL1       -0.2026
     33 C         141.5670  143.1907  169.5799 C.ar    1  UNL1        0.0313
     34 C         142.4544  142.5308  170.5934 C.ar    1  UNL1        0.0033
     35 C         142.8049  141.0793  170.4513 C.ar    1  UNL1        0.0131
     36 C         142.2682  140.2877  169.2958 C.ar    1  UNL1        0.0776
     37 CL        142.6188  138.8362  169.1538 Cl      1  UNL1       -0.0806
@<TRIPOS>BOND
     1     2     3    2
     2     3     4   am
     3     4     6    1
     4     6     7   ar
     5     7     8   ar
     6     8     9   ar
     7     9    10    1
     8     9    11   ar
     9    11    12   ar
    10     3     1    1
    11     1    13    1
    12    13    14    1
    13    14    15    1
    14    15    16    1
    15    16    17    1
    16    16    18    1
    17     1    20    1
    18    20    21    1
    19    21    22   ar
    20    22    23   ar
    21    23    24   ar
    22    24    25   ar
    23    25    26   ar
    24    26    27   ar
    25    27    28   ar
    26    28    29   ar
    27    29    30    1
    28    30    31   ar
    29    31    32    1
    30    31    33   ar
    31    33    34   ar
    32    34    35   ar
    33    35    36   ar
    34    36    37    1
    35    12     6   ar
    36    18    14    1
    37    26    21   ar
    38    36    30   ar
    39    29    25   ar
    40     4     5    1
    41    17    19    1
@<TRIPOS>MOLECULE
*****
 37 41 0 0 0
SMALL
GASTEIGER

@<TRIPOS>ATOM
      1 C         141.5653  144.4054  159.2945 C.3     1  UNL1        0.2588
      2 O         142.5656  146.2642  157.7798 O.2     1  UNL1       -0.2708
      3 C         141.4047  145.4075  158.1899 C.2     1  UNL1        0.2689
      4 N         140.0830  145.5529  157.4956 N.am    1  UNL1       -0.2664
      5 H         139.3211  144.9907  157.7648 H       1  UNL1        0.1564
      6 C         139.9224  146.5550  156.3911 C.ar    1  UNL1        0.1344
      7 C         139.0013  147.7255  156.5685 C.ar    1  UNL1        0.0368
      8 C         138.8406  148.7276  155.4640 C.ar    1  UNL1        0.0341
      9 C         139.6010  148.5592  154.1819 C.ar    1  UNL1        0.1593
     10 F         139.4403  149.5612  153.0774 F       1  UNL1       -0.2025
     11 C         140.5221  147.3887  154.0045 C.ar    1  UNL1        0.1298
     12 N         140.6828  146.3866  155.1091 N.ar    1  UNL1       -0.2267
     13 C         141.6418  142.9420  158.9742 C.3     1  UNL1        0.1261
     14 N         140.3826  142.1457  158.7998 N.3     1  UNL1       -0.2650
     15 C         140.0627  140.7548  158.3379 C.3     1  UNL1        0.1033
     16 C         138.6020  141.0194  158.5532 C.3     1  UNL1        0.1423
     17 O         137.3429  140.2231  158.3788 O.3     1  UNL1       -0.3816
     18 C         138.9219  142.4102  159.0151 C.3     1  UNL1        0.1033
     19 H         137.5632  139.3378  158.0493 H       1  UNL1        0.2105
     20 O         141.6496  144.8667  160.7193 O.3     1  UNL1       -0.4529
     21 C         140.6328  144.4020  161.7195 C.ar    1  UNL1        0.2312
     22 N         139.3112  145.1033  161.8267 N.ar    1  UNL1       -0.1892
     23 C         138.2946  144.6385  162.8268 C.ar    1  UNL1        0.2029
     24 N         138.5995  143.4724  163.7197 N.ar    1  UNL1       -0.2046
     25 C         139.9211  142.7711  163.6125 C.ar    1  UNL1        0.1716
     26 C         140.9377  143.2359  162.6124 C.ar    1  UNL1        0.1098
     27 C         142.1451  142.3541  162.7347 C.ar    1  UNL1        0.1283
     28 N         141.8745  141.3444  163.8104 N.ar    1  UNL1       -0.1619
     29 N         140.5000  141.6021  164.3529 N.ar    1  UNL1       -0.2089
     30 C         139.8233  140.8269  165.4443 C.ar    1  UNL1        0.1222
     31 C         138.7441  139.8415  165.1061 C.ar    1  UNL1        0.1585
     32 F         138.3417  139.6312  163.6764 F       1  UNL1       -0.2026
     33 C         138.0674  139.0663  166.1974 C.ar    1  UNL1        0.0313
     34 C         138.4697  139.2765  167.6271 C.ar    1  UNL1        0.0033
     35 C         139.5489  140.2619  167.9653 C.ar    1  UNL1        0.0131
     36 C         140.2256  141.0371  166.8739 C.ar    1  UNL1        0.0776
     37 CL        141.3047  142.0225  167.2122 Cl      1  UNL1       -0.0806
@<TRIPOS>BOND
     1     2     3    2
     2     3     4   am
     3     4     6    1
     4     6     7   ar
     5     7     8   ar
     6     8     9   ar
     7     9    10    1
     8     9    11   ar
     9    11    12   ar
    10     3     1    1
    11     1    13    1
    12    13    14    1
    13    14    15    1
    14    15    16    1
    15    16    17    1
    16    16    18    1
    17     1    20    1
    18    20    21    1
    19    21    22   ar
    20    22    23   ar
    21    23    24   ar
    22    24    25   ar
    23    25    26   ar
    24    26    27   ar
    25    27    28   ar
    26    28    29   ar
    27    29    30    1
    28    30    31   ar
    29    31    32    1
    30    31    33   ar
    31    33    34   ar
    32    34    35   ar
    33    35    36   ar
    34    36    37    1
    35    12     6   ar
    36    18    14    1
    37    26    21   ar
    38    36    30   ar
    39    29    25   ar
    40     4     5    1
    41    17    19    1
@<TRIPOS>MOLECULE
*****
 37 41 0 0 0
SMALL
GASTEIGER

@<TRIPOS>ATOM
      1 C         141.5490  144.2289  159.7944 C.3     1  UNL1        0.2588
      2 O         142.5910  145.9534  158.1542 O.2     1  UNL1       -0.2708
      3 C         141.4173  145.1369  158.6077 C.2     1  UNL1        0.2689
      4 N         140.1119  145.2284  157.8745 N.am    1  UNL1       -0.2664
      5 H         139.3416  144.6925  158.1722 H       1  UNL1        0.1564
      6 C         139.9802  146.1363  156.6878 C.ar    1  UNL1        0.1344
      7 C         140.7490  145.8466  155.4328 C.ar    1  UNL1        0.0368
      8 C         140.6174  146.7545  154.2462 C.ar    1  UNL1        0.0341
      9 C         139.7168  147.9522  154.3144 C.ar    1  UNL1        0.1593
     10 F         139.5851  148.8602  153.1277 F       1  UNL1       -0.2025
     11 C         138.9480  148.2419  155.5694 C.ar    1  UNL1        0.1298
     12 N         139.0797  147.3339  156.7561 N.ar    1  UNL1       -0.2267
     13 C         141.0822  142.8062  159.7057 C.3     1  UNL1        0.1261
     14 N         139.8891  142.3575  160.4964 N.3     1  UNL1       -0.2650
     15 C         139.6063  141.2262  161.4399 C.3     1  UNL1        0.1033
     16 C         138.2018  141.7231  161.6146 C.3     1  UNL1        0.1423
     17 O         137.0087  141.2744  162.4054 O.3     1  UNL1       -0.3816
     18 C         138.4846  142.8543  160.6712 C.3     1  UNL1        0.1033
     19 H         137.2351  140.4758  162.9072 H       1  UNL1        0.2105
     20 O         142.1474  144.7437  161.0699 O.3     1  UNL1       -0.4529
     21 C         142.6604  143.7812  162.0997 C.ar    1  UNL1        0.2312
     22 N         143.9388  143.0348  161.8577 N.ar    1  UNL1       -0.1892
     23 C         144.4518  142.0724  162.8875 C.ar    1  UNL1        0.2029
     24 N         143.6863  141.8563  164.1593 N.ar    1  UNL1       -0.2046
     25 C         142.4079  142.6026  164.4013 C.ar    1  UNL1        0.1716
     26 C         141.8950  143.5651  163.3715 C.ar    1  UNL1        0.1098
     27 C         140.6141  144.1537  163.8844 C.ar    1  UNL1        0.1283
     28 N         140.3355  143.5550  165.2312 N.ar    1  UNL1       -0.1619
     29 N         141.4442  142.5964  165.5506 N.ar    1  UNL1       -0.2089
     30 C         141.5674  141.7756  166.8001 C.ar    1  UNL1        0.1222
     31 C         142.7714  141.9275  167.6816 C.ar    1  UNL1        0.1585
     32 F         143.8524  142.9003  167.3137 F       1  UNL1       -0.2026
     33 C         142.8947  141.1068  168.9310 C.ar    1  UNL1        0.0313
     34 C         141.8138  140.1340  169.2990 C.ar    1  UNL1        0.0033
     35 C         140.6097  139.9820  168.4175 C.ar    1  UNL1        0.0131
     36 C         140.4865  140.8028  167.1681 C.ar    1  UNL1        0.0776
     37 CL        139.2824  140.6508  166.2866 Cl      1  UNL1       -0.0806
@<TRIPOS>BOND
     1     2     3    2
     2     3     4   am
     3     4     6    1
     4     6     7   ar
     5     7     8   ar
     6     8     9   ar
     7     9    10    1
     8     9    11   ar
     9    11    12   ar
    10     3     1    1
    11     1    13    1
    12    13    14    1
    13    14    15    1
    14    15    16    1
    15    16    17    1
    16    16    18    1
    17     1    20    1
    18    20    21    1
    19    21    22   ar
    20    22    23   ar
    21    23    24   ar
    22    24    25   ar
    23    25    26   ar
    24    26    27   ar
    25    27    28   ar
    26    28    29   ar
    27    29    30    1
    28    30    31   ar
    29    31    32    1
    30    31    33   ar
    31    33    34   ar
    32    34    35   ar
    33    35    36   ar
    34    36    37    1
    35    12     6   ar
    36    18    14    1
    37    26    21   ar
    38    36    30   ar
    39    29    25   ar
    40     4     5    1
    41    17    19    1
@<TRIPOS>MOLECULE
*****
 37 41 0 0 0
SMALL
GASTEIGER

@<TRIPOS>ATOM
      1 C         141.4816  143.8750  159.2221 C.3     1  UNL1        0.2588
      2 O         142.4045  146.0405  158.1226 O.2     1  UNL1       -0.2708
      3 C         141.3033  145.0357  158.2887 C.2     1  UNL1        0.2689
      4 N         140.0238  145.1914  157.5214 N.am    1  UNL1       -0.2664
      5 H         139.3011  144.5319  157.6305 H       1  UNL1        0.1564
      6 C         139.8456  146.3520  156.5881 C.ar    1  UNL1        0.1344
      7 C         140.5371  146.3571  155.2570 C.ar    1  UNL1        0.0368
      8 C         140.3588  147.5177  154.3237 C.ar    1  UNL1        0.0341
      9 C         139.4890  148.6733  154.7214 C.ar    1  UNL1        0.1593
     10 F         139.3107  149.8339  153.7880 F       1  UNL1       -0.2025
     11 C         138.7974  148.6682  156.0524 C.ar    1  UNL1        0.1298
     12 N         138.9758  147.5075  156.9858 N.ar    1  UNL1       -0.2267
     13 C         142.8550  143.4898  159.6861 C.3     1  UNL1        0.1261
     14 N         143.2452  143.6887  161.1207 N.3     1  UNL1       -0.2650
     15 C         144.2394  143.0538  162.0474 C.3     1  UNL1        0.1033
     16 C         143.7971  143.9700  163.1496 C.3     1  UNL1        0.1423
     17 O         144.1873  144.1690  164.5842 O.3     1  UNL1       -0.3816
     18 C         142.8029  144.6049  162.2230 C.3     1  UNL1        0.1033
     19 H         144.8907  143.5432  164.8177 H       1  UNL1        0.2105
     20 O         140.2864  143.0996  159.6914 O.3     1  UNL1       -0.4529
     21 C         139.8110  143.2385  161.1073 C.ar    1  UNL1        0.2312
     22 N         138.9559  144.4065  161.5002 N.ar    1  UNL1       -0.1892
     23 C         138.4805  144.5454  162.9161 C.ar    1  UNL1        0.2029
     24 N         138.8603  143.5162  163.9391 N.ar    1  UNL1       -0.2046
     25 C         139.7155  142.3482  163.5462 C.ar    1  UNL1        0.1716
     26 C         140.1908  142.2093  162.1303 C.ar    1  UNL1        0.1098
     27 C         141.0158  140.9599  162.0387 C.ar    1  UNL1        0.1283
     28 N         141.0503  140.3266  163.3980 N.ar    1  UNL1       -0.1619
     29 N         140.2467  141.1846  164.3297 N.ar    1  UNL1       -0.2089
     30 C         140.0149  140.9247  165.7887 C.ar    1  UNL1        0.1222
     31 C         140.6638  141.8007  166.8189 C.ar    1  UNL1        0.1585
     32 F         141.5445  142.9367  166.3902 F       1  UNL1       -0.2026
     33 C         140.4320  141.5407  168.2780 C.ar    1  UNL1        0.0313
     34 C         139.5514  140.4047  168.7068 C.ar    1  UNL1        0.0033
     35 C         138.9025  139.5287  167.6765 C.ar    1  UNL1        0.0131
     36 C         139.1342  139.7886  166.2175 C.ar    1  UNL1        0.0776
     37 CL        138.4853  138.9126  165.1873 Cl      1  UNL1       -0.0806
@<TRIPOS>BOND
     1     2     3    2
     2     3     4   am
     3     4     6    1
     4     6     7   ar
     5     7     8   ar
     6     8     9   ar
     7     9    10    1
     8     9    11   ar
     9    11    12   ar
    10     3     1    1
    11     1    13    1
    12    13    14    1
    13    14    15    1
    14    15    16    1
    15    16    17    1
    16    16    18    1
    17     1    20    1
    18    20    21    1
    19    21    22   ar
    20    22    23   ar
    21    23    24   ar
    22    24    25   ar
    23    25    26   ar
    24    26    27   ar
    25    27    28   ar
    26    28    29   ar
    27    29    30    1
    28    30    31   ar
    29    31    32    1
    30    31    33   ar
    31    33    34   ar
    32    34    35   ar
    33    35    36   ar
    34    36    37    1
    35    12     6   ar
    36    18    14    1
    37    26    21   ar
    38    36    30   ar
    39    29    25   ar
    40     4     5    1
    41    17    19    1
@<TRIPOS>MOLECULE
*****
 37 41 0 0 0
SMALL
GASTEIGER

@<TRIPOS>ATOM
      1 C         138.3698  141.6072  164.2742 C.3     1  UNL1        0.2588
      2 O         139.7840  142.7741  166.1150 O.2     1  UNL1       -0.2708
      3 C         139.2148  141.5248  165.5109 C.2     1  UNL1        0.2689
      4 N         139.4905  140.1929  166.1434 N.am    1  UNL1       -0.2664
      5 H         139.1169  139.3729  165.7469 H       1  UNL1        0.1564
      6 C         140.3354  140.1104  167.3800 C.ar    1  UNL1        0.1344
      7 C         141.8312  140.1160  167.2682 C.ar    1  UNL1        0.0368
      8 C         142.6761  140.0336  168.5048 C.ar    1  UNL1        0.0341
      9 C         142.0252  139.9454  169.8534 C.ar    1  UNL1        0.1593
     10 F         142.8701  139.8629  171.0900 F       1  UNL1       -0.2025
     11 C         140.5294  139.9398  169.9653 C.ar    1  UNL1        0.1298
     12 N         139.6845  140.0222  168.7285 N.ar    1  UNL1       -0.2267
     13 C         137.9407  140.3520  163.5740 C.3     1  UNL1        0.1261
     14 N         138.9520  139.2948  163.2427 N.3     1  UNL1       -0.2650
     15 C         138.9755  137.7959  163.2955 C.3     1  UNL1        0.1033
     16 C         140.3820  137.7997  162.7743 C.3     1  UNL1        0.1423
     17 O         141.3933  136.7425  162.4431 O.3     1  UNL1       -0.3816
     18 C         140.3585  139.2985  162.7215 C.3     1  UNL1        0.1033
     19 H         141.0150  135.8668  162.6192 H       1  UNL1        0.2105
     20 O         137.9540  142.9449  163.7378 O.3     1  UNL1       -0.4529
     21 C         138.8981  143.7360  162.8816 C.ar    1  UNL1        0.2312
     22 N         139.6862  144.8639  163.4789 N.ar    1  UNL1       -0.1892
     23 C         140.6302  145.6550  162.6227 C.ar    1  UNL1        0.2029
     24 N         140.7861  145.3182  161.1694 N.ar    1  UNL1       -0.2046
     25 C         139.9980  144.1903  160.5721 C.ar    1  UNL1        0.1716
     26 C         139.0540  143.3992  161.4283 C.ar    1  UNL1        0.1098
     27 C         138.4151  142.3504  160.5669 C.ar    1  UNL1        0.1283
     28 N         138.9643  142.4933  159.1784 N.ar    1  UNL1       -0.1619
     29 N         139.9426  143.6305  159.1817 N.ar    1  UNL1       -0.2089
     30 C         140.7277  144.1215  158.0016 C.ar    1  UNL1        0.1222
     31 C         140.5709  145.5378  157.5333 C.ar    1  UNL1        0.1585
     32 F         139.6289  146.4632  158.2450 F       1  UNL1       -0.2026
     33 C         141.3559  146.0289  156.3532 C.ar    1  UNL1        0.0313
     34 C         142.2978  145.1036  155.6414 C.ar    1  UNL1        0.0033
     35 C         142.4546  143.6873  156.1098 C.ar    1  UNL1        0.0131
     36 C         141.6696  143.1962  157.2898 C.ar    1  UNL1        0.0776
     37 CL        141.8265  141.7799  157.7581 Cl      1  UNL1       -0.0806
@<TRIPOS>BOND
     1     2     3    2
     2     3     4   am
     3     4     6    1
     4     6     7   ar
     5     7     8   ar
     6     8     9   ar
     7     9    10    1
     8     9    11   ar
     9    11    12   ar
    10     3     1    1
    11     1    13    1
    12    13    14    1
    13    14    15    1
    14    15    16    1
    15    16    17    1
    16    16    18    1
    17     1    20    1
    18    20    21    1
    19    21    22   ar
    20    22    23   ar
    21    23    24   ar
    22    24    25   ar
    23    25    26   ar
    24    26    27   ar
    25    27    28   ar
    26    28    29   ar
    27    29    30    1
    28    30    31   ar
    29    31    32    1
    30    31    33   ar
    31    33    34   ar
    32    34    35   ar
    33    35    36   ar
    34    36    37    1
    35    12     6   ar
    36    18    14    1
    37    26    21   ar
    38    36    30   ar
    39    29    25   ar
    40     4     5    1
    41    17    19    1
@<TRIPOS>MOLECULE
*****
 37 41 0 0 0
SMALL
GASTEIGER

@<TRIPOS>ATOM
      1 C         141.5473  138.4856  160.6319 C.3     1  UNL1        0.2588
      2 O         144.1205  138.6804  160.3305 O.2     1  UNL1       -0.2708
      3 C         142.7318  139.0852  159.9336 C.2     1  UNL1        0.2689
      4 N         142.5274  140.0897  158.8385 N.am    1  UNL1       -0.2664
      5 H         141.6159  140.3554  158.5781 H       1  UNL1        0.1564
      6 C         143.7118  140.6893  158.1402 C.ar    1  UNL1        0.1344
      7 C         144.2959  141.9814  158.6294 C.ar    1  UNL1        0.0368
      8 C         145.4803  142.5811  157.9311 C.ar    1  UNL1        0.0341
      9 C         146.0806  141.8886  156.7436 C.ar    1  UNL1        0.1593
     10 F         147.2650  142.4882  156.0453 F       1  UNL1       -0.2025
     11 C         145.4965  140.5965  156.2544 C.ar    1  UNL1        0.1298
     12 N         144.3121  139.9969  156.9527 N.ar    1  UNL1       -0.2267
     13 C         140.1657  138.7116  160.0936 C.3     1  UNL1        0.1261
     14 N         139.4293  139.9759  160.4244 N.3     1  UNL1       -0.2650
     15 C         139.5841  141.0548  161.4550 C.3     1  UNL1        0.1033
     16 C         138.3880  141.7638  160.8923 C.3     1  UNL1        0.1423
     17 O         137.6517  143.0281  161.2232 O.3     1  UNL1       -0.3816
     18 C         138.2332  140.6850  159.8618 C.3     1  UNL1        0.1033
     19 H         138.0754  143.4600  161.9814 H       1  UNL1        0.2105
     20 O         141.7446  137.6599  161.8686 O.3     1  UNL1       -0.4529
     21 C         141.0541  138.0428  163.1441 C.ar    1  UNL1        0.2312
     22 N         139.7085  137.4660  163.4708 N.ar    1  UNL1       -0.1892
     23 C         139.0181  137.8488  164.7462 C.ar    1  UNL1        0.2029
     24 N         139.6732  138.8084  165.6948 N.ar    1  UNL1       -0.2046
     25 C         141.0187  139.3852  165.3681 C.ar    1  UNL1        0.1716
     26 C         141.7092  139.0024  164.0927 C.ar    1  UNL1        0.1098
     27 C         143.0212  139.7277  164.0401 C.ar    1  UNL1        0.1283
     28 N         143.1415  140.5588  165.2830 N.ar    1  UNL1       -0.1619
     29 N         141.9039  140.3471  166.1037 N.ar    1  UNL1       -0.2089
     30 C         141.6042  140.9853  167.4277 C.ar    1  UNL1        0.1222
     31 C         142.0414  140.3182  168.6980 C.ar    1  UNL1        0.1585
     32 F         142.7785  139.0129  168.6444 F       1  UNL1       -0.2026
     33 C         141.7417  140.9564  170.0219 C.ar    1  UNL1        0.0313
     34 C         141.0047  142.2618  170.0756 C.ar    1  UNL1        0.0033
     35 C         140.5674  142.9288  168.8053 C.ar    1  UNL1        0.0131
     36 C         140.8671  142.2906  167.4813 C.ar    1  UNL1        0.0776
     37 CL        140.4299  142.9578  166.2110 Cl      1  UNL1       -0.0806
@<TRIPOS>BOND
     1     2     3    2
     2     3     4   am
     3     4     6    1
     4     6     7   ar
     5     7     8   ar
     6     8     9   ar
     7     9    10    1
     8     9    11   ar
     9    11    12   ar
    10     3     1    1
    11     1    13    1
    12    13    14    1
    13    14    15    1
    14    15    16    1
    15    16    17    1
    16    16    18    1
    17     1    20    1
    18    20    21    1
    19    21    22   ar
    20    22    23   ar
    21    23    24   ar
    22    24    25   ar
    23    25    26   ar
    24    26    27   ar
    25    27    28   ar
    26    28    29   ar
    27    29    30    1
    28    30    31   ar
    29    31    32    1
    30    31    33   ar
    31    33    34   ar
    32    34    35   ar
    33    35    36   ar
    34    36    37    1
    35    12     6   ar
    36    18    14    1
    37    26    21   ar
    38    36    30   ar
    39    29    25   ar
    40     4     5    1
    41    17    19    1
