@<TRIPOS>MOLECULE
*****
 13 14 0 0 0
SMALL
GASTEIGER

@<TRIPOS>ATOM
      1 C         140.4664  142.5361  169.2733 C.2     1  UNL1        0.0636
      2 C         139.8544  141.3932  170.0277 C.2     1  UNL1       -0.0213
      3 C         139.3490  140.1906  169.2870 C.3     1  UNL1        0.0419
      4 C         139.5293  140.2855  167.7911 C.3     1  UNL1        0.0622
      5 C         139.8302  140.6472  166.3668 C.3     1  UNL1        0.0180
      6 C         140.4753  142.0014  166.3589 C.3     1  UNL1        0.0221
      7 C         140.5732  142.4766  167.7783 C.3     1  UNL1        0.0862
      8 N         139.9885  141.4160  168.6635 N.3     1  UNL1       -0.2699
      9 C         139.8505  141.2727  169.4354 C.3     1  UNL1        0.0898
     10 C         140.9718  143.7387  170.0139 C.2     1  UNL1        0.3382
     11 O         140.0507  144.8891  170.2935 O.2     1  UNL1       -0.2452
     12 C         143.3395  142.6753  170.1290 C.3     1  UNL1        0.2559
     13 O         142.3983  143.7908  170.4750 O.3     1  UNL1       -0.4415
@<TRIPOS>BOND
     1    12    13    1
     2    13    10    1
     3    10    11    2
     4    10     1    1
     5     1     2    2
     6     2     3    1
     7     3     4    1
     8     4     5    1
     9     5     6    1
    10     6     7    1
    11     7     8    1
    12     8     9    1
    13     7     1    1
    14     8     4    1
@<TRIPOS>MOLECULE
*****
 13 14 0 0 0
SMALL
GASTEIGER

@<TRIPOS>ATOM
      1 C         138.3111  138.7629  165.8104 C.2     1  UNL1        0.0636
      2 C         138.9803  137.6046  165.1317 C.2     1  UNL1       -0.0213
      3 C         139.4072  137.7198  163.6984 C.3     1  UNL1        0.0419
      4 C         139.0929  139.0621  163.0828 C.3     1  UNL1        0.0622
      5 C         138.6670  140.4594  162.7419 C.3     1  UNL1        0.0180
      6 C         138.0342  141.0615  163.9613 C.3     1  UNL1        0.0221
      7 C         138.0689  140.0364  165.0558 C.3     1  UNL1        0.0862
      8 N         138.7232  138.8007  164.5129 N.3     1  UNL1       -0.2699
      9 C         138.9295  138.0665  164.7452 C.3     1  UNL1        0.0898
     10 C         137.8841  138.6476  167.2437 C.2     1  UNL1        0.3382
     11 O         136.7222  137.7734  167.6122 O.2     1  UNL1       -0.2452
     12 C         139.9524  140.0233  168.0053 C.3     1  UNL1        0.2559
     13 O         138.6190  139.4066  168.3086 O.3     1  UNL1       -0.4415
@<TRIPOS>BOND
     1    12    13    1
     2    13    10    1
     3    10    11    2
     4    10     1    1
     5     1     2    2
     6     2     3    1
     7     3     4    1
     8     4     5    1
     9     5     6    1
    10     6     7    1
    11     7     8    1
    12     8     9    1
    13     7     1    1
    14     8     4    1
@<TRIPOS>MOLECULE
*****
 13 14 0 0 0
SMALL
GASTEIGER

@<TRIPOS>ATOM
      1 C         139.6706  140.0724  168.6507 C.2     1  UNL1        0.0636
      2 C         141.0258  140.3502  168.0707 C.2     1  UNL1       -0.0213
      3 C         141.3197  139.9892  166.6448 C.3     1  UNL1        0.0419
      4 C         140.1498  139.3558  165.9309 C.3     1  UNL1        0.0622
      5 C         138.8463  138.7631  165.4842 C.3     1  UNL1        0.0180
      6 C         137.8943  138.8112  166.6423 C.3     1  UNL1        0.0221
      7 C         138.6093  139.4336  167.8047 C.3     1  UNL1        0.0862
      8 N         140.0034  139.7702  167.3651 N.3     1  UNL1       -0.2699
      9 C         140.6731  140.0935  167.6524 C.3     1  UNL1        0.0898
     10 C         139.3767  140.4335  170.0766 C.2     1  UNL1        0.3382
     11 O         139.4988  139.3963  171.1533 O.2     1  UNL1       -0.2452
     12 C         139.9779  142.9340  170.4454 C.3     1  UNL1        0.2559
     13 O         138.9607  141.8317  170.4258 O.3     1  UNL1       -0.4415
@<TRIPOS>BOND
     1    12    13    1
     2    13    10    1
     3    10    11    2
     4    10     1    1
     5     1     2    2
     6     2     3    1
     7     3     4    1
     8     4     5    1
     9     5     6    1
    10     6     7    1
    11     7     8    1
    12     8     9    1
    13     7     1    1
    14     8     4    1
@<TRIPOS>MOLECULE
*****
 13 14 0 0 0
SMALL
GASTEIGER

@<TRIPOS>ATOM
      1 C         140.1903  140.2529  169.1353 C.2     1  UNL1        0.0636
      2 C         141.5378  139.8466  169.6543 C.2     1  UNL1       -0.0213
      3 C         142.6142  139.4259  168.6981 C.3     1  UNL1        0.0419
      4 C         142.1835  139.4659  167.2516 C.3     1  UNL1        0.0622
      5 C         141.4934  139.5996  165.9266 C.3     1  UNL1        0.0180
      6 C         140.0940  140.0771  166.1790 C.3     1  UNL1        0.0221
      7 C         139.9193  140.2384  167.6601 C.3     1  UNL1        0.0862
      8 N         141.2107  139.8607  168.3230 N.3     1  UNL1       -0.2699
      9 C         141.5304  139.8067  169.0512 C.3     1  UNL1        0.0898
     10 C         139.1140  140.6736  170.0915 C.2     1  UNL1        0.3382
     11 O         137.9835  139.7394  170.4065 O.2     1  UNL1       -0.2452
     12 C         140.0329  143.1032  170.1434 C.3     1  UNL1        0.2559
     13 O         139.1680  142.0286  170.7327 O.3     1  UNL1       -0.4415
@<TRIPOS>BOND
     1    12    13    1
     2    13    10    1
     3    10    11    2
     4    10     1    1
     5     1     2    2
     6     2     3    1
     7     3     4    1
     8     4     5    1
     9     5     6    1
    10     6     7    1
    11     7     8    1
    12     8     9    1
    13     7     1    1
    14     8     4    1
@<TRIPOS>MOLECULE
*****
 13 14 0 0 0
SMALL
GASTEIGER

@<TRIPOS>ATOM
      1 C         140.9509  142.6785  169.2218 C.2     1  UNL1        0.0636
      2 C         142.3523  142.4369  169.6990 C.2     1  UNL1       -0.0213
      3 C         143.4561  142.2223  168.7062 C.3     1  UNL1        0.0419
      4 C         142.9935  142.2793  167.2702 C.3     1  UNL1        0.0622
      5 C         142.2635  142.3863  165.9642 C.3     1  UNL1        0.0180
      6 C         140.8171  142.6498  166.2619 C.3     1  UNL1        0.0221
      7 C         140.6532  142.7055  167.7519 C.3     1  UNL1        0.0862
      8 N         141.9983  142.4765  168.3750 N.3     1  UNL1       -0.2699
      9 C         142.3378  142.4288  169.0948 C.3     1  UNL1        0.0898
     10 C         139.8471  142.8932  170.2145 C.2     1  UNL1        0.3382
     11 O         139.5906  144.2643  170.7661 O.2     1  UNL1       -0.2452
     12 C         139.0833  140.4261  169.9309 C.3     1  UNL1        0.2559
     13 O         138.9998  141.7366  170.6558 O.3     1  UNL1       -0.4415
@<TRIPOS>BOND
     1    12    13    1
     2    13    10    1
     3    10    11    2
     4    10     1    1
     5     1     2    2
     6     2     3    1
     7     3     4    1
     8     4     5    1
     9     5     6    1
    10     6     7    1
    11     7     8    1
    12     8     9    1
    13     7     1    1
    14     8     4    1
@<TRIPOS>MOLECULE
*****
 13 14 0 0 0
SMALL
GASTEIGER

@<TRIPOS>ATOM
      1 C         138.4465  138.9407  165.7795 C.2     1  UNL1        0.0636
      2 C         137.9927  140.1565  165.0271 C.2     1  UNL1       -0.0213
      3 C         138.4638  140.3883  163.6221 C.3     1  UNL1        0.0419
      4 C         139.3877  139.3089  163.1113 C.3     1  UNL1        0.0622
      5 C         140.2643  138.1149  162.8754 C.3     1  UNL1        0.0180
      6 C         140.2543  137.2792  164.1209 C.3     1  UNL1        0.0221
      7 C         139.3715  137.9567  165.1267 C.3     1  UNL1        0.0862
      8 N         138.8359  139.2112  164.5027 N.3     1  UNL1       -0.2699
      9 C         138.3602  139.8261  164.6792 C.3     1  UNL1        0.0898
     10 C         137.9754  138.7090  167.1845 C.2     1  UNL1        0.3382
     11 O         136.8212  137.7872  167.4462 O.2     1  UNL1       -0.2452
     12 C         139.9520  140.1237  168.1019 C.3     1  UNL1        0.2559
     13 O         138.6583  139.3990  168.3281 O.3     1  UNL1       -0.4415
@<TRIPOS>BOND
     1    12    13    1
     2    13    10    1
     3    10    11    2
     4    10     1    1
     5     1     2    2
     6     2     3    1
     7     3     4    1
     8     4     5    1
     9     5     6    1
    10     6     7    1
    11     7     8    1
    12     8     9    1
    13     7     1    1
    14     8     4    1
@<TRIPOS>MOLECULE
*****
 13 14 0 0 0
SMALL
GASTEIGER

@<TRIPOS>ATOM
      1 C         142.7959  141.8029  168.9899 C.2     1  UNL1        0.0636
      2 C         142.5795  140.3530  169.3074 C.2     1  UNL1       -0.0213
      3 C         142.6027  139.3328  168.2080 C.3     1  UNL1        0.0419
      4 C         142.8550  139.9253  166.8425 C.3     1  UNL1        0.0622
      5 C         143.1173  140.7747  165.6343 C.3     1  UNL1        0.0180
      6 C         143.2288  142.2008  166.0857 C.3     1  UNL1        0.0221
      7 C         143.0355  142.2327  167.5729 C.3     1  UNL1        0.0862
      8 N         142.8044  140.8264  168.0406 N.3     1  UNL1       -0.2699
      9 C         142.6665  140.4214  168.7132 C.3     1  UNL1        0.0898
     10 C         142.7728  142.8231  170.0893 C.2     1  UNL1        0.3382
     11 O         144.0543  143.4367  170.5702 O.2     1  UNL1       -0.2452
     12 C         140.4137  143.8891  169.8689 C.3     1  UNL1        0.2559
     13 O         141.4680  143.2298  170.7078 O.3     1  UNL1       -0.4415
@<TRIPOS>BOND
     1    12    13    1
     2    13    10    1
     3    10    11    2
     4    10     1    1
     5     1     2    2
     6     2     3    1
     7     3     4    1
     8     4     5    1
     9     5     6    1
    10     6     7    1
    11     7     8    1
    12     8     9    1
    13     7     1    1
    14     8     4    1
@<TRIPOS>MOLECULE
*****
 13 14 0 0 0
SMALL
GASTEIGER

@<TRIPOS>ATOM
      1 C         139.6293  140.4815  168.1861 C.2     1  UNL1        0.0636
      2 C         138.9923  139.4445  167.3092 C.2     1  UNL1       -0.0213
      3 C         139.0285  139.5987  165.8176 C.3     1  UNL1        0.0419
      4 C         139.7414  140.8479  165.3588 C.3     1  UNL1        0.0622
      5 C         140.4889  142.1382  165.1966 C.3     1  UNL1        0.0180
      6 C         140.8357  142.6479  166.5641 C.3     1  UNL1        0.0221
      7 C         140.3026  141.6726  167.5713 C.3     1  UNL1        0.0862
      8 N         139.6262  140.5602  166.8264 N.3     1  UNL1       -0.2699
      9 C         139.2344  139.8804  166.9676 C.3     1  UNL1        0.0898
     10 C         139.5930  140.3274  169.6777 C.2     1  UNL1        0.3382
     11 O         138.5754  141.0779  170.4847 O.2     1  UNL1       -0.2452
     12 C         141.9992  139.3719  169.8959 C.3     1  UNL1        0.2559
     13 O         140.5744  139.4228  170.3623 O.3     1  UNL1       -0.4415
@<TRIPOS>BOND
     1    12    13    1
     2    13    10    1
     3    10    11    2
     4    10     1    1
     5     1     2    2
     6     2     3    1
     7     3     4    1
     8     4     5    1
     9     5     6    1
    10     6     7    1
    11     7     8    1
    12     8     9    1
    13     7     1    1
    14     8     4    1
@<TRIPOS>MOLECULE
*****
 13 14 0 0 0
SMALL
GASTEIGER

@<TRIPOS>ATOM
      1 C         142.5877  140.0557  168.3111 C.2     1  UNL1        0.0636
      2 C         142.4701  141.4880  167.8815 C.2     1  UNL1       -0.0213
      3 C         142.7657  141.8719  166.4619 C.3     1  UNL1        0.0419
      4 C         143.1673  140.7038  165.5937 C.3     1  UNL1        0.0622
      5 C         143.5286  139.3827  164.9821 C.3     1  UNL1        0.0180
      6 C         143.4258  138.3341  166.0498 C.3     1  UNL1        0.0221
      7 C         143.0010  139.0072  167.3212 C.3     1  UNL1        0.0862
      8 N         142.8412  140.4718  167.0393 N.3     1  UNL1       -0.2699
      9 C         142.6413  141.1473  167.4125 C.3     1  UNL1        0.0898
     10 C         142.2921  139.6718  169.7307 C.2     1  UNL1        0.3382
     11 O         143.3988  139.6300  170.7424 O.2     1  UNL1       -0.2452
     12 C         139.8688  140.4171  170.2990 C.3     1  UNL1        0.2559
     13 O         140.8896  139.3297  170.1387 O.3     1  UNL1       -0.4415
@<TRIPOS>BOND
     1    12    13    1
     2    13    10    1
     3    10    11    2
     4    10     1    1
     5     1     2    2
     6     2     3    1
     7     3     4    1
     8     4     5    1
     9     5     6    1
    10     6     7    1
    11     7     8    1
    12     8     9    1
    13     7     1    1
    14     8     4    1
