@<TRIPOS>MOLECULE
*****
 30 33 0 0 0
SMALL
GASTEIGER

@<TRIPOS>ATOM
      1 C         141.1567  141.9243  168.9005 C.ar    1  UNL1        0.1737
      2 C         141.1845  141.2202  170.2247 C.ar    1  UNL1        0.0401
      3 C         141.8719  139.8933  170.3543 C.ar    1  UNL1        0.0046
      4 C         142.5315  139.2705  169.1597 C.ar    1  UNL1        0.0217
      5 C         142.5037  139.9746  167.8356 C.ar    1  UNL1        0.1426
      6 C         141.8163  141.3015  167.7060 C.ar    1  UNL1        0.1895
      7 O         141.7885  142.0056  166.3818 O.3     1  UNL1       -0.4686
      8 C         142.4481  141.3829  165.1872 C.3     1  UNL1        0.2104
      9 C         143.1355  140.0559  165.3168 C.3     1  UNL1        0.1779
     10 C         143.7952  139.4332  164.1221 C.3     1  UNL1        0.0300
     11 S         143.1634  139.3518  166.6409 S.O2    1  UNL1        0.0138
     12 O         143.4555  138.3052  167.6750 O.2     1  UNL1       -0.1685
     13 O         143.9244  138.3655  165.8054 O.2     1  UNL1       -0.1685
     14 C         142.4203  142.0870  163.8630 C.ar    1  UNL1        0.0191
     15 C         141.4080  141.6967  162.8271 C.ar    1  UNL1        0.0023
     16 C         141.3802  142.4007  161.5030 C.ar    1  UNL1        0.0367
     17 C         142.3647  143.4950  161.2146 C.ar    1  UNL1        0.1385
     18 C         143.3770  143.8853  162.2504 C.ar    1  UNL1        0.0367
     19 C         143.4048  143.1813  163.5746 C.ar    1  UNL1        0.0023
     20 O         142.3369  144.1992  159.8904 O.3     1  UNL1       -0.4754
     21 C         141.3902  145.3412  159.6679 C.3     1  UNL1        0.2068
     22 C         140.0422  145.3370  160.3258 C.3     1  UNL1        0.0646
     23 C         139.8544  146.0061  161.6552 C.3     1  UNL1        0.0759
     24 N         139.3913  145.2080  162.8377 N.3     1  UNL1       -0.2726
     25 C         140.1718  144.9603  164.0946 C.3     1  UNL1        0.0721
     26 C         139.3293  144.1167  165.0048 C.3     1  UNL1        0.0188
     27 C         138.0281  143.8428  164.3105 C.3     1  UNL1        0.0188
     28 C         138.0665  144.5173  162.9712 C.3     1  UNL1        0.0721
     29 C         140.3362  144.1469  169.9668 C.3     1  UNL1        0.2526
     30 O         140.4693  143.2512  168.7710 O.3     1  UNL1       -0.4683
@<TRIPOS>BOND
     1    29    30    1
     2    30     1    1
     3     1     2   ar
     4     2     3   ar
     5     3     4   ar
     6     4     5   ar
     7     5     6   ar
     8     6     7    1
     9     7     8    1
    10     8    14    1
    11    14    15   ar
    12    15    16   ar
    13    16    17   ar
    14    17    20    1
    15    20    21    1
    16    21    22    1
    17    22    23    1
    18    23    24    1
    19    24    25    1
    20    25    26    1
    21    26    27    1
    22    27    28    1
    23    17    18   ar
    24    18    19   ar
    25     8     9    1
    26     9    10    1
    27     9    11    1
    28    11    12    2
    29    11    13    2
    30     6     1   ar
    31    19    14   ar
    32    11     5    1
    33    28    24    1
@<TRIPOS>MOLECULE
*****
 30 33 0 0 0
SMALL
GASTEIGER

@<TRIPOS>ATOM
      1 C         142.4100  142.0074  169.4069 C.ar    1  UNL1        0.1737
      2 C         141.9839  142.1938  170.8330 C.ar    1  UNL1        0.0401
      3 C         140.6996  141.5887  171.3172 C.ar    1  UNL1        0.0046
      4 C         139.8414  140.7972  170.3754 C.ar    1  UNL1        0.0217
      5 C         140.2675  140.6109  168.9494 C.ar    1  UNL1        0.1426
      6 C         141.5518  141.2160  168.4651 C.ar    1  UNL1        0.1895
      7 O         141.9778  141.0296  167.0390 O.3     1  UNL1       -0.4686
      8 C         141.1196  140.2382  166.0972 C.3     1  UNL1        0.2104
      9 C         139.8353  139.6331  166.5814 C.3     1  UNL1        0.1779
     10 C         138.9771  138.8416  165.6395 C.3     1  UNL1        0.0300
     11 S         139.4093  139.8194  168.0075 S.O2    1  UNL1        0.0138
     12 O         138.5858  139.7187  169.2572 O.2     1  UNL1       -0.1685
     13 O         138.2651  138.9930  167.4996 O.2     1  UNL1       -0.1685
     14 C         141.5457  140.0519  164.6710 C.ar    1  UNL1        0.0191
     15 C         141.0519  140.9922  163.6118 C.ar    1  UNL1        0.0023
     16 C         141.4779  140.8059  162.1857 C.ar    1  UNL1        0.0367
     17 C         142.3977  139.6792  161.8188 C.ar    1  UNL1        0.1385
     18 C         142.8915  138.7389  162.8781 C.ar    1  UNL1        0.0367
     19 C         142.4655  138.9252  164.3041 C.ar    1  UNL1        0.0023
     20 O         142.8237  139.4929  160.3927 O.3     1  UNL1       -0.4754
     21 C         143.9495  140.3112  159.8332 C.3     1  UNL1        0.2068
     22 C         143.8525  141.8079  159.8163 C.3     1  UNL1        0.0646
     23 C         144.7792  142.6292  160.6630 C.3     1  UNL1        0.0759
     24 N         144.6856  142.5629  162.1585 N.3     1  UNL1       -0.2726
     25 C         145.3395  141.5390  163.0384 C.3     1  UNL1        0.0721
     26 C         144.9797  141.8522  164.4605 C.3     1  UNL1        0.0188
     27 C         144.1033  143.0696  164.4597 C.3     1  UNL1        0.0188
     28 C         143.9216  143.5089  163.0369 C.3     1  UNL1        0.0721
     29 C         144.7751  142.9618  169.9024 C.3     1  UNL1        0.2526
     30 O         143.6942  142.6126  168.9227 O.3     1  UNL1       -0.4683
@<TRIPOS>BOND
     1    29    30    1
     2    30     1    1
     3     1     2   ar
     4     2     3   ar
     5     3     4   ar
     6     4     5   ar
     7     5     6   ar
     8     6     7    1
     9     7     8    1
    10     8    14    1
    11    14    15   ar
    12    15    16   ar
    13    16    17   ar
    14    17    20    1
    15    20    21    1
    16    21    22    1
    17    22    23    1
    18    23    24    1
    19    24    25    1
    20    25    26    1
    21    26    27    1
    22    27    28    1
    23    17    18   ar
    24    18    19   ar
    25     8     9    1
    26     9    10    1
    27     9    11    1
    28    11    12    2
    29    11    13    2
    30     6     1   ar
    31    19    14   ar
    32    11     5    1
    33    28    24    1
@<TRIPOS>MOLECULE
*****
 30 33 0 0 0
SMALL
GASTEIGER

@<TRIPOS>ATOM
      1 C         142.8608  142.1662  167.1468 C.ar    1  UNL1        0.1737
      2 C         143.4584  142.3407  168.5115 C.ar    1  UNL1        0.0401
      3 C         142.7961  141.7194  169.7053 C.ar    1  UNL1        0.0046
      4 C         141.5361  140.9236  169.5345 C.ar    1  UNL1        0.0217
      5 C         140.9385  140.7491  168.1699 C.ar    1  UNL1        0.1426
      6 C         141.6009  141.3704  166.9760 C.ar    1  UNL1        0.1895
      7 O         141.0032  141.1958  165.6113 O.3     1  UNL1       -0.4686
      8 C         139.7433  140.4000  165.4405 C.3     1  UNL1        0.2104
      9 C         139.0810  139.7787  166.6343 C.3     1  UNL1        0.1779
     10 C         137.8209  138.9829  166.4635 C.3     1  UNL1        0.0300
     11 S         139.6785  139.9533  167.9990 S.O2    1  UNL1        0.0138
     12 O         139.8605  139.8375  169.4835 O.2     1  UNL1       -0.1685
     13 O         138.4817  139.1172  168.3437 O.2     1  UNL1       -0.1685
     14 C         139.1456  140.2254  164.0757 C.ar    1  UNL1        0.0191
     15 C         139.5796  139.0817  163.2077 C.ar    1  UNL1        0.0023
     16 C         138.9820  138.9071  161.8430 C.ar    1  UNL1        0.0367
     17 C         137.9505  139.8762  161.3464 C.ar    1  UNL1        0.1385
     18 C         137.5165  141.0200  162.2145 C.ar    1  UNL1        0.0367
     19 C         138.1141  141.1946  163.5791 C.ar    1  UNL1        0.0023
     20 O         137.3528  139.7016  159.9817 O.3     1  UNL1       -0.4754
     21 C         137.8775  140.5002  158.8254 C.3     1  UNL1        0.2068
     22 C         139.2619  141.0753  158.8778 C.3     1  UNL1        0.0646
     23 C         139.4626  142.5142  159.2510 C.3     1  UNL1        0.0759
     24 N         140.0527  142.8680  160.5839 N.3     1  UNL1       -0.2726
     25 C         141.1313  142.1102  161.2998 C.3     1  UNL1        0.0721
     26 C         141.4131  142.8156  162.5933 C.3     1  UNL1        0.0188
     27 C         140.5086  144.0094  162.6768 C.3     1  UNL1        0.0188
     28 C         139.6679  144.0418  161.4349 C.3     1  UNL1        0.0721
     29 C         144.2306  141.9219  164.9527 C.3     1  UNL1        0.2526
     30 O         143.5232  142.7874  165.9529 O.3     1  UNL1       -0.4683
@<TRIPOS>BOND
     1    29    30    1
     2    30     1    1
     3     1     2   ar
     4     2     3   ar
     5     3     4   ar
     6     4     5   ar
     7     5     6   ar
     8     6     7    1
     9     7     8    1
    10     8    14    1
    11    14    15   ar
    12    15    16   ar
    13    16    17   ar
    14    17    20    1
    15    20    21    1
    16    21    22    1
    17    22    23    1
    18    23    24    1
    19    24    25    1
    20    25    26    1
    21    26    27    1
    22    27    28    1
    23    17    18   ar
    24    18    19   ar
    25     8     9    1
    26     9    10    1
    27     9    11    1
    28    11    12    2
    29    11    13    2
    30     6     1   ar
    31    19    14   ar
    32    11     5    1
    33    28    24    1
@<TRIPOS>MOLECULE
*****
 30 33 0 0 0
SMALL
GASTEIGER

@<TRIPOS>ATOM
      1 C         142.6988  142.0732  167.9535 C.ar    1  UNL1        0.1737
      2 C         142.9184  142.5282  169.3658 C.ar    1  UNL1        0.0401
      3 C         141.9535  142.1264  170.4418 C.ar    1  UNL1        0.0046
      4 C         140.7691  141.2698  170.1054 C.ar    1  UNL1        0.0217
      5 C         140.5495  140.8149  168.6930 C.ar    1  UNL1        0.1426
      6 C         141.5144  141.2166  167.6171 C.ar    1  UNL1        0.1895
      7 O         141.2948  140.7616  166.2047 O.3     1  UNL1       -0.4686
      8 C         140.1103  139.9050  165.8682 C.3     1  UNL1        0.2104
      9 C         139.1454  139.5033  166.9442 C.3     1  UNL1        0.1779
     10 C         137.9610  138.6466  166.6077 C.3     1  UNL1        0.0300
     11 S         139.3650  139.9582  168.3565 S.O2    1  UNL1        0.0138
     12 O         139.1469  140.1372  169.8298 O.2     1  UNL1       -0.1685
     13 O         138.1048  139.1637  168.5318 O.2     1  UNL1       -0.1685
     14 C         139.8907  139.4500  164.4558 C.ar    1  UNL1        0.0191
     15 C         139.1899  140.3473  163.4792 C.ar    1  UNL1        0.0023
     16 C         138.9703  139.8924  162.0669 C.ar    1  UNL1        0.0367
     17 C         139.4515  138.5401  161.6311 C.ar    1  UNL1        0.1385
     18 C         140.1523  137.6429  162.6077 C.ar    1  UNL1        0.0367
     19 C         140.3719  138.0978  164.0201 C.ar    1  UNL1        0.0023
     20 O         139.2318  138.0852  160.2187 O.3     1  UNL1       -0.4754
     21 C         140.0299  138.6916  159.1028 C.3     1  UNL1        0.2068
     22 C         141.4848  138.3582  158.9539 C.3     1  UNL1        0.0646
     23 C         142.5284  139.3520  159.3702 C.3     1  UNL1        0.0759
     24 N         142.9363  139.4526  160.8101 N.3     1  UNL1       -0.2726
     25 C         142.6074  140.5803  161.7430 C.3     1  UNL1        0.0721
     26 C         143.2125  140.2679  163.0795 C.3     1  UNL1        0.0188
     27 C         143.9154  138.9470  162.9727 C.3     1  UNL1        0.0188
     28 C         143.7447  138.4432  161.5701 C.3     1  UNL1        0.0721
     29 C         143.1608  143.1311  165.6260 C.3     1  UNL1        0.2526
     30 O         143.6637  142.4749  166.8775 O.3     1  UNL1       -0.4683
@<TRIPOS>BOND
     1    29    30    1
     2    30     1    1
     3     1     2   ar
     4     2     3   ar
     5     3     4   ar
     6     4     5   ar
     7     5     6   ar
     8     6     7    1
     9     7     8    1
    10     8    14    1
    11    14    15   ar
    12    15    16   ar
    13    16    17   ar
    14    17    20    1
    15    20    21    1
    16    21    22    1
    17    22    23    1
    18    23    24    1
    19    24    25    1
    20    25    26    1
    21    26    27    1
    22    27    28    1
    23    17    18   ar
    24    18    19   ar
    25     8     9    1
    26     9    10    1
    27     9    11    1
    28    11    12    2
    29    11    13    2
    30     6     1   ar
    31    19    14   ar
    32    11     5    1
    33    28    24    1
@<TRIPOS>MOLECULE
*****
 30 33 0 0 0
SMALL
GASTEIGER

@<TRIPOS>ATOM
      1 C         139.2532  137.0959  155.3765 C.ar    1  UNL1        0.1737
      2 C         140.0077  136.3767  154.2980 C.ar    1  UNL1        0.0401
      3 C         141.4917  136.1927  154.4158 C.ar    1  UNL1        0.0046
      4 C         142.2212  136.7280  155.6122 C.ar    1  UNL1        0.0217
      5 C         141.4666  137.4472  156.6907 C.ar    1  UNL1        0.1426
      6 C         139.9826  137.6312  156.5729 C.ar    1  UNL1        0.1895
      7 O         139.2280  138.3505  157.6515 O.3     1  UNL1       -0.4686
      8 C         139.9574  138.8857  158.8479 C.3     1  UNL1        0.2104
      9 C         141.4414  138.7018  158.9657 C.3     1  UNL1        0.1779
     10 C         142.1709  139.2371  160.1622 C.3     1  UNL1        0.0300
     11 S         142.1960  137.9825  157.8872 S.O2    1  UNL1        0.0138
     12 O         143.3422  137.3760  157.1332 O.2     1  UNL1       -0.1685
     13 O         143.3235  138.3071  158.8218 O.2     1  UNL1       -0.1685
     14 C         139.2029  139.6050  159.9265 C.ar    1  UNL1        0.0191
     15 C         138.5928  138.8322  161.0581 C.ar    1  UNL1        0.0023
     16 C         137.8382  139.5514  162.1366 C.ar    1  UNL1        0.0367
     17 C         137.6938  141.0434  162.0836 C.ar    1  UNL1        0.1385
     18 C         138.3039  141.8163  160.9520 C.ar    1  UNL1        0.0367
     19 C         139.0584  141.0971  159.8734 C.ar    1  UNL1        0.0023
     20 O         136.9392  141.7627  163.1622 O.3     1  UNL1       -0.4754
     21 C         137.6804  142.5780  164.1801 C.3     1  UNL1        0.2068
     22 C         139.1183  142.2749  164.4811 C.3     1  UNL1        0.0646
     23 C         139.4695  141.3441  165.6037 C.3     1  UNL1        0.0759
     24 N         139.4420  139.8606  165.3843 N.3     1  UNL1       -0.2726
     25 C         140.4978  139.0522  164.6898 C.3     1  UNL1        0.0721
     26 C         140.0623  137.6169  164.6971 C.3     1  UNL1        0.0188
     27 C         138.7374  137.5380  165.3961 C.3     1  UNL1        0.0188
     28 C         138.3541  138.9247  165.8208 C.3     1  UNL1        0.0721
     29 C         137.1647  137.6773  153.9446 C.3     1  UNL1        0.2526
     30 O         137.7692  137.2799  155.2586 O.3     1  UNL1       -0.4683
@<TRIPOS>BOND
     1    29    30    1
     2    30     1    1
     3     1     2   ar
     4     2     3   ar
     5     3     4   ar
     6     4     5   ar
     7     5     6   ar
     8     6     7    1
     9     7     8    1
    10     8    14    1
    11    14    15   ar
    12    15    16   ar
    13    16    17   ar
    14    17    20    1
    15    20    21    1
    16    21    22    1
    17    22    23    1
    18    23    24    1
    19    24    25    1
    20    25    26    1
    21    26    27    1
    22    27    28    1
    23    17    18   ar
    24    18    19   ar
    25     8     9    1
    26     9    10    1
    27     9    11    1
    28    11    12    2
    29    11    13    2
    30     6     1   ar
    31    19    14   ar
    32    11     5    1
    33    28    24    1
@<TRIPOS>MOLECULE
*****
 30 33 0 0 0
SMALL
GASTEIGER

@<TRIPOS>ATOM
      1 C         139.2585  137.1511  155.4564 C.ar    1  UNL1        0.1737
      2 C         140.0034  136.4137  154.3835 C.ar    1  UNL1        0.0401
      3 C         141.4891  136.2359  154.4887 C.ar    1  UNL1        0.0046
      4 C         142.2299  136.7957  155.6668 C.ar    1  UNL1        0.0217
      5 C         141.4849  137.5331  156.7397 C.ar    1  UNL1        0.1426
      6 C         139.9992  137.7108  156.6345 C.ar    1  UNL1        0.1895
      7 O         139.2543  138.4483  157.7075 O.3     1  UNL1       -0.4686
      8 C         139.9950  139.0081  158.8856 C.3     1  UNL1        0.2104
      9 C         141.4808  138.8303  158.9907 C.3     1  UNL1        0.1779
     10 C         142.2215  139.3901  160.1689 C.3     1  UNL1        0.0300
     11 S         142.2257  138.0929  157.9178 S.O2    1  UNL1        0.0138
     12 O         143.3654  137.4753  157.1630 O.2     1  UNL1       -0.1685
     13 O         143.3623  138.4382  158.8338 O.2     1  UNL1       -0.1685
     14 C         139.2501  139.7456  159.9586 C.ar    1  UNL1        0.0191
     15 C         139.1010  141.2360  159.8791 C.ar    1  UNL1        0.0023
     16 C         138.3561  141.9735  160.9520 C.ar    1  UNL1        0.0367
     17 C         137.7603  141.2206  162.1044 C.ar    1  UNL1        0.1385
     18 C         137.9094  139.7301  162.1838 C.ar    1  UNL1        0.0367
     19 C         138.6543  138.9926  161.1109 C.ar    1  UNL1        0.0023
     20 O         137.0154  141.9581  163.1774 O.3     1  UNL1       -0.4754
     21 C         137.7573  142.5246  164.3515 C.3     1  UNL1        0.2068
     22 C         137.9319  144.0086  164.4833 C.3     1  UNL1        0.0646
     23 C         139.2967  144.6175  164.3546 C.3     1  UNL1        0.0759
     24 N         139.9316  144.7563  163.0028 N.3     1  UNL1       -0.2726
     25 C         141.0704  143.9349  162.4750 C.3     1  UNL1        0.0721
     26 C         141.3819  144.4118  161.0874 C.3     1  UNL1        0.0188
     27 C         140.4357  145.5280  160.7574 C.3     1  UNL1        0.0188
     28 C         139.5393  145.7409  161.9413 C.3     1  UNL1        0.0721
     29 C         137.1571  137.7405  154.0468 C.3     1  UNL1        0.2526
     30 O         137.7727  137.3288  155.3512 O.3     1  UNL1       -0.4683
@<TRIPOS>BOND
     1    29    30    1
     2    30     1    1
     3     1     2   ar
     4     2     3   ar
     5     3     4   ar
     6     4     5   ar
     7     5     6   ar
     8     6     7    1
     9     7     8    1
    10     8    14    1
    11    14    15   ar
    12    15    16   ar
    13    16    17   ar
    14    17    20    1
    15    20    21    1
    16    21    22    1
    17    22    23    1
    18    23    24    1
    19    24    25    1
    20    25    26    1
    21    26    27    1
    22    27    28    1
    23    17    18   ar
    24    18    19   ar
    25     8     9    1
    26     9    10    1
    27     9    11    1
    28    11    12    2
    29    11    13    2
    30     6     1   ar
    31    19    14   ar
    32    11     5    1
    33    28    24    1
@<TRIPOS>MOLECULE
*****
 30 33 0 0 0
SMALL
GASTEIGER

@<TRIPOS>ATOM
      1 C         141.9000  139.0450  160.2971 C.ar    1  UNL1        0.1737
      2 C         142.3196  138.7715  158.8833 C.ar    1  UNL1        0.0401
      3 C         143.2607  139.7083  158.1856 C.ar    1  UNL1        0.0046
      4 C         143.7821  140.9187  158.9018 C.ar    1  UNL1        0.0217
      5 C         143.3625  141.1923  160.3157 C.ar    1  UNL1        0.1426
      6 C         142.4214  140.2554  161.0133 C.ar    1  UNL1        0.1895
      7 O         142.0018  140.5290  162.4273 O.3     1  UNL1       -0.4686
      8 C         142.5233  141.7393  163.1435 C.3     1  UNL1        0.2104
      9 C         143.4643  142.6762  162.4458 C.3     1  UNL1        0.1779
     10 C         143.9857  143.8867  163.1621 C.3     1  UNL1        0.0300
     11 S         143.8839  142.4027  161.0320 S.O2    1  UNL1        0.0138
     12 O         144.5670  142.5697  159.7070 O.2     1  UNL1       -0.1685
     13 O         144.6426  143.6711  161.2881 O.2     1  UNL1       -0.1685
     14 C         142.1037  142.0129  164.5574 C.ar    1  UNL1        0.0191
     15 C         140.7460  142.5849  164.8395 C.ar    1  UNL1        0.0023
     16 C         140.3264  142.8585  166.2534 C.ar    1  UNL1        0.0367
     17 C         141.2644  142.5601  167.3851 C.ar    1  UNL1        0.1385
     18 C         142.6221  141.9881  167.1031 C.ar    1  UNL1        0.0367
     19 C         143.0417  141.7145  165.6892 C.ar    1  UNL1        0.0023
     20 O         140.8448  142.8337  168.7991 O.3     1  UNL1       -0.4754
     21 C         140.0466  141.8133  169.5553 C.3     1  UNL1        0.2068
     22 C         140.0854  140.3726  169.1399 C.3     1  UNL1        0.0646
     23 C         138.9710  139.7994  168.3155 C.3     1  UNL1        0.0759
     24 N         139.1886  139.5064  166.8606 N.3     1  UNL1       -0.2726
     25 C         138.1638  139.6344  165.7725 C.3     1  UNL1        0.0721
     26 C         138.8109  139.2411  164.4777 C.3     1  UNL1        0.0188
     27 C         140.2356  138.8700  164.7654 C.3     1  UNL1        0.0188
     28 C         140.4690  139.0340  166.2381 C.3     1  UNL1        0.0721
     29 C         139.4776  138.3219  160.8962 C.3     1  UNL1        0.2526
     30 O         140.9590  138.1081  160.9948 O.3     1  UNL1       -0.4683
@<TRIPOS>BOND
     1    29    30    1
     2    30     1    1
     3     1     2   ar
     4     2     3   ar
     5     3     4   ar
     6     4     5   ar
     7     5     6   ar
     8     6     7    1
     9     7     8    1
    10     8    14    1
    11    14    15   ar
    12    15    16   ar
    13    16    17   ar
    14    17    20    1
    15    20    21    1
    16    21    22    1
    17    22    23    1
    18    23    24    1
    19    24    25    1
    20    25    26    1
    21    26    27    1
    22    27    28    1
    23    17    18   ar
    24    18    19   ar
    25     8     9    1
    26     9    10    1
    27     9    11    1
    28    11    12    2
    29    11    13    2
    30     6     1   ar
    31    19    14   ar
    32    11     5    1
    33    28    24    1
@<TRIPOS>MOLECULE
*****
 30 33 0 0 0
SMALL
GASTEIGER

@<TRIPOS>ATOM
      1 C         139.7734  139.9613  167.5228 C.ar    1  UNL1        0.1737
      2 C         139.4377  140.3185  168.9404 C.ar    1  UNL1        0.0401
      3 C         140.2890  141.3015  169.6880 C.ar    1  UNL1        0.0046
      4 C         141.4762  141.9274  169.0179 C.ar    1  UNL1        0.0217
      5 C         141.8119  141.5702  167.6003 C.ar    1  UNL1        0.1426
      6 C         140.9606  140.5871  166.8528 C.ar    1  UNL1        0.1895
      7 O         141.2964  140.2300  165.4351 O.3     1  UNL1       -0.4686
      8 C         142.4835  140.8558  164.7651 C.3     1  UNL1        0.2104
      9 C         143.3349  141.8388  165.5126 C.3     1  UNL1        0.1779
     10 C         144.5221  142.4646  164.8425 C.3     1  UNL1        0.0300
     11 S         142.9991  142.1960  166.9302 S.O2    1  UNL1        0.0138
     12 O         143.0861  142.8494  168.2777 O.2     1  UNL1       -0.1685
     13 O         144.2165  143.0488  166.7281 O.2     1  UNL1       -0.1685
     14 C         142.8193  140.4986  163.3474 C.ar    1  UNL1        0.0191
     15 C         143.5565  139.2268  163.0489 C.ar    1  UNL1        0.0023
     16 C         143.8923  138.8696  161.6313 C.ar    1  UNL1        0.0367
     17 C         143.4910  139.7842  160.5122 C.ar    1  UNL1        0.1385
     18 C         142.7538  141.0560  160.8107 C.ar    1  UNL1        0.0367
     19 C         142.4180  141.4132  162.2283 C.ar    1  UNL1        0.0023
     20 O         143.8268  139.4270  159.0946 O.3     1  UNL1       -0.4754
     21 C         142.8760  138.5959  158.2852 C.3     1  UNL1        0.2068
     22 C         141.5235  139.1374  157.9279 C.3     1  UNL1        0.0646
     23 C         140.2916  138.5467  158.5471 C.3     1  UNL1        0.0759
     24 N         139.9120  138.9072  159.9528 N.3     1  UNL1       -0.2726
     25 C         139.1466  140.1265  160.3742 C.3     1  UNL1        0.0721
     26 C         138.9927  140.0847  161.8657 C.3     1  UNL1        0.0188
     27 C         139.6629  138.8395  162.3661 C.3     1  UNL1        0.0188
     28 C         140.2311  138.1117  161.1838 C.3     1  UNL1        0.0721
     29 C         138.0177  139.4526  165.6766 C.3     1  UNL1        0.2526
     30 O         138.9221  138.9783  166.7753 O.3     1  UNL1       -0.4683
@<TRIPOS>BOND
     1    29    30    1
     2    30     1    1
     3     1     2   ar
     4     2     3   ar
     5     3     4   ar
     6     4     5   ar
     7     5     6   ar
     8     6     7    1
     9     7     8    1
    10     8    14    1
    11    14    15   ar
    12    15    16   ar
    13    16    17   ar
    14    17    20    1
    15    20    21    1
    16    21    22    1
    17    22    23    1
    18    23    24    1
    19    24    25    1
    20    25    26    1
    21    26    27    1
    22    27    28    1
    23    17    18   ar
    24    18    19   ar
    25     8     9    1
    26     9    10    1
    27     9    11    1
    28    11    12    2
    29    11    13    2
    30     6     1   ar
    31    19    14   ar
    32    11     5    1
    33    28    24    1
@<TRIPOS>MOLECULE
*****
 30 33 0 0 0
SMALL
GASTEIGER

@<TRIPOS>ATOM
      1 C         140.4522  142.7872  167.2141 C.ar    1  UNL1        0.1737
      2 C         140.2555  143.3719  168.5813 C.ar    1  UNL1        0.0401
      3 C         140.8566  142.6979  169.7789 C.ar    1  UNL1        0.0046
      4 C         141.6545  141.4391  169.6093 C.ar    1  UNL1        0.0217
      5 C         141.8512  140.8543  168.2421 C.ar    1  UNL1        0.1426
      6 C         141.2501  141.5284  167.0445 C.ar    1  UNL1        0.1895
      7 O         141.4469  140.9436  165.6772 O.3     1  UNL1       -0.4686
      8 C         142.2448  139.6848  165.5076 C.3     1  UNL1        0.2104
      9 C         142.8459  139.0108  166.7053 C.3     1  UNL1        0.1779
     10 C         143.6438  137.7519  166.5356 C.3     1  UNL1        0.0300
     11 S         142.6491  139.5955  168.0725 S.O2    1  UNL1        0.0138
     12 O         142.7405  139.7633  169.5603 O.2     1  UNL1       -0.1685
     13 O         143.4788  138.3949  168.4196 O.2     1  UNL1       -0.1685
     14 C         142.4416  139.1000  164.1404 C.ar    1  UNL1        0.0191
     15 C         141.4405  138.1285  163.5890 C.ar    1  UNL1        0.0023
     16 C         141.6372  137.5437  162.2218 C.ar    1  UNL1        0.0367
     17 C         142.8350  137.9304  161.4060 C.ar    1  UNL1        0.1385
     18 C         143.8361  138.9019  161.9573 C.ar    1  UNL1        0.0367
     19 C         143.6394  139.4867  163.3245 C.ar    1  UNL1        0.0023
     20 O         143.0318  137.3456  160.0387 O.3     1  UNL1       -0.4754
     21 C         142.7588  138.1776  158.8208 C.3     1  UNL1        0.2068
     22 C         141.3461  138.5049  158.4373 C.3     1  UNL1        0.0646
     23 C         140.8122  139.8900  158.6530 C.3     1  UNL1        0.0759
     24 N         140.3858  140.3244  160.0239 N.3     1  UNL1       -0.2726
     25 C         139.1429  139.8868  160.7407 C.3     1  UNL1        0.0721
     26 C         139.1164  140.5647  162.0786 C.3     1  UNL1        0.0188
     27 C         140.3429  141.4213  162.1886 C.3     1  UNL1        0.0188
     28 C         141.1274  141.2728  160.9187 C.3     1  UNL1        0.0721
     29 C         140.7341  143.9336  164.8997 C.3     1  UNL1        0.2526
     30 O         139.8511  143.4612  166.0165 O.3     1  UNL1       -0.4683
@<TRIPOS>BOND
     1    29    30    1
     2    30     1    1
     3     1     2   ar
     4     2     3   ar
     5     3     4   ar
     6     4     5   ar
     7     5     6   ar
     8     6     7    1
     9     7     8    1
    10     8    14    1
    11    14    15   ar
    12    15    16   ar
    13    16    17   ar
    14    17    20    1
    15    20    21    1
    16    21    22    1
    17    22    23    1
    18    23    24    1
    19    24    25    1
    20    25    26    1
    21    26    27    1
    22    27    28    1
    23    17    18   ar
    24    18    19   ar
    25     8     9    1
    26     9    10    1
    27     9    11    1
    28    11    12    2
    29    11    13    2
    30     6     1   ar
    31    19    14   ar
    32    11     5    1
    33    28    24    1
