@<TRIPOS>MOLECULE
*****
 30 34 0 0 0
SMALL
GASTEIGER

@<TRIPOS>ATOM
      1 C         142.7534  145.0178  163.5789 C.3     1  UNL1        0.0294
      2 C         141.8886  144.8489  162.3650 C.3     1  UNL1        0.0666
      3 S         140.5701  144.1423  162.4759 S.3     1  UNL1       -0.0756
      4 C         139.9276  140.5811  163.8796 C.ar    1  UNL1        0.2029
      5 N         140.9967  140.3041  162.8645 N.ar    1  UNL1       -0.1250
      6 N         141.3675  141.6044  162.2151 N.ar    1  UNL1       -0.1220
      7 C         140.5276  142.6851  162.8289 C.ar    1  UNL1        0.1933
      8 N         139.6377  142.0527  163.8575 N.ar    1  UNL1       -0.2860
      9 C         138.6341  142.7665  164.7138 C.3     1  UNL1        0.1341
     10 C         140.2606  137.3421  163.6607 C.3     1  UNL1        0.0556
     11 C         139.4179  138.0762  164.6612 C.ar    1  UNL1        0.1001
     12 N         138.5803  137.4504  165.7367 N.ar    1  UNL1       -0.2085
     13 C         137.9095  138.5524  166.5020 C.ar    1  UNL1        0.2849
     14 O         138.3326  139.8593  165.8995 O.2     1  UNL1       -0.4283
     15 C         139.2648  139.5650  164.7618 C.ar    1  UNL1        0.1964
     16 C         144.0801  144.3223  163.6574 C.3     1  UNL1        0.0730
     17 N         144.1447  142.8694  164.0246 N.3     1  UNL1       -0.2724
     18 C         145.0344  141.8394  163.3942 C.3     1  UNL1        0.0725
     19 C         144.7704  140.5248  164.0667 C.3     1  UNL1        0.0227
     20 C         143.7175  140.7424  165.1127 C.3     1  UNL1        0.0350
     21 C         144.1043  139.2934  165.1388 C.3     1  UNL1        0.0101
     22 C         143.2904  138.6154  166.2008 C.3     1  UNL1        0.0264
     23 C         142.4007  139.6454  166.8311 C.ar    1  UNL1       -0.0256
     24 C         141.3842  139.5562  167.9306 C.ar    1  UNL1        0.0021
     25 C         140.6317  140.7815  168.3576 C.ar    1  UNL1        0.0342
     26 BR        139.6152  140.6923  169.4570 Br      1  UNL1       -0.0490
     27 C         140.8956  142.0961  167.6852 C.ar    1  UNL1        0.0064
     28 C         141.9121  142.1853  166.5857 C.ar    1  UNL1       -0.0040
     29 C         142.6646  140.9600  166.1587 C.ar    1  UNL1       -0.0254
     30 C         143.3308  142.1915  165.0867 C.3     1  UNL1        0.0761
@<TRIPOS>BOND
     1    10    11    1
     2    11    12   ar
     3    12    13   ar
     4    13    14   ar
     5    14    15   ar
     6    15     4    1
     7     4     5   ar
     8     5     6   ar
     9     6     7   ar
    10     7     3    1
    11     3     2    1
    12     2     1    1
    13     1    16    1
    14    16    17    1
    15    17    18    1
    16    18    19    1
    17    19    20    1
    18    20    21    1
    19    21    22    1
    20    22    23    1
    21    23    24   ar
    22    24    25   ar
    23    25    26    1
    24    25    27   ar
    25    27    28   ar
    26    28    29   ar
    27    20    30    1
    28     7     8   ar
    29     8     9    1
    30    15    11   ar
    31     8     4   ar
    32    30    17    1
    33    29    20    1
    34    29    23   ar
@<TRIPOS>MOLECULE
*****
 30 34 0 0 0
SMALL
GASTEIGER

@<TRIPOS>ATOM
      1 C         144.8879  139.7919  164.3356 C.3     1  UNL1        0.0294
      2 C         145.5950  140.9986  163.7934 C.3     1  UNL1        0.0666
      3 S         144.9291  141.8560  162.7582 S.3     1  UNL1       -0.0756
      4 C         141.6394  143.8257  163.3612 C.ar    1  UNL1        0.2029
      5 N         142.6115  144.6295  164.1730 N.ar    1  UNL1       -0.1250
      6 N         143.9621  143.9895  164.0459 N.ar    1  UNL1       -0.1220
      7 C         143.8248  142.7901  163.1556 C.ar    1  UNL1        0.1933
      8 N         142.3893  142.6888  162.7324 N.ar    1  UNL1       -0.2860
      9 C         141.8061  141.6357  161.8375 C.3     1  UNL1        0.1341
     10 C         140.2692  145.5910  160.9829 C.3     1  UNL1        0.0556
     11 C         139.5448  144.9204  162.1124 C.ar    1  UNL1        0.1001
     12 N         138.0635  144.9435  162.3469 N.ar    1  UNL1       -0.2085
     13 C         137.7777  144.1463  163.5850 C.ar    1  UNL1        0.2849
     14 O         139.0825  143.6306  164.1157 O.2     1  UNL1       -0.4283
     15 C         140.1746  144.1090  163.2055 C.ar    1  UNL1        0.1964
     16 C         143.9379  139.0248  163.4644 C.3     1  UNL1        0.0730
     17 N         142.5235  138.8021  163.9116 N.3     1  UNL1       -0.2724
     18 C         141.4665  138.0547  163.1538 C.3     1  UNL1        0.0725
     19 C         140.2076  138.0785  163.9689 C.3     1  UNL1        0.0227
     20 C         140.4865  138.8405  165.2305 C.3     1  UNL1        0.0350
     21 C         139.0551  138.3932  165.2660 C.3     1  UNL1        0.0101
     22 C         138.4495  138.8788  166.5495 C.3     1  UNL1        0.0264
     23 C         139.5064  139.6261  167.3072 C.ar    1  UNL1       -0.0256
     24 C         139.4852  140.3252  168.6342 C.ar    1  UNL1        0.0021
     25 C         140.7229  141.0006  169.1460 C.ar    1  UNL1        0.0342
     26 BR        140.7017  141.6996  170.4730 Br      1  UNL1       -0.0490
     27 C         141.9818  140.9769  168.3309 C.ar    1  UNL1        0.0064
     28 C         142.0030  140.2778  167.0039 C.ar    1  UNL1       -0.0040
     29 C         140.7654  139.6025  166.4921 C.ar    1  UNL1       -0.0254
     30 C         141.9178  139.2877  165.1951 C.3     1  UNL1        0.0761
@<TRIPOS>BOND
     1    10    11    1
     2    11    12   ar
     3    12    13   ar
     4    13    14   ar
     5    14    15   ar
     6    15     4    1
     7     4     5   ar
     8     5     6   ar
     9     6     7   ar
    10     7     3    1
    11     3     2    1
    12     2     1    1
    13     1    16    1
    14    16    17    1
    15    17    18    1
    16    18    19    1
    17    19    20    1
    18    20    21    1
    19    21    22    1
    20    22    23    1
    21    23    24   ar
    22    24    25   ar
    23    25    26    1
    24    25    27   ar
    25    27    28   ar
    26    28    29   ar
    27    20    30    1
    28     7     8   ar
    29     8     9    1
    30    15    11   ar
    31     8     4   ar
    32    30    17    1
    33    29    20    1
    34    29    23   ar
@<TRIPOS>MOLECULE
*****
 30 34 0 0 0
SMALL
GASTEIGER

@<TRIPOS>ATOM
      1 C         144.0540  138.6484  162.0918 C.3     1  UNL1        0.0294
      2 C         144.0763  140.1156  162.4031 C.3     1  UNL1        0.0666
      3 S         144.5511  140.5906  163.7443 S.3     1  UNL1       -0.0756
      4 C         142.5552  139.9954  167.0197 C.ar    1  UNL1        0.2029
      5 N         143.1855  138.6496  166.8157 N.ar    1  UNL1       -0.1250
      6 N         144.0099  138.7088  165.5639 N.ar    1  UNL1       -0.1220
      7 C         143.8891  140.0911  164.9943 C.ar    1  UNL1        0.1933
      8 N         142.9900  140.8863  165.8939 N.ar    1  UNL1       -0.2860
      9 C         142.5952  142.3206  165.7016 C.3     1  UNL1        0.1341
     10 C         143.2811  142.0632  169.4377 C.3     1  UNL1        0.0556
     11 C         141.9828  141.3328  169.2622 C.ar    1  UNL1        0.1001
     12 N         140.7902  141.4246  170.1673 N.ar    1  UNL1       -0.2085
     13 C         139.7194  140.5308  169.6152 C.ar    1  UNL1        0.2849
     14 O         140.2503  139.8867  168.3690 O.2     1  UNL1       -0.4283
     15 C         141.6491  140.3823  168.1508 C.ar    1  UNL1        0.1964
     16 C         142.7447  137.9429  161.8966 C.3     1  UNL1        0.0730
     17 N         141.6793  138.0345  162.9485 N.3     1  UNL1       -0.2724
     18 C         141.3201  136.9634  163.9353 C.3     1  UNL1        0.0725
     19 C         140.2048  137.4802  164.7948 C.3     1  UNL1        0.0227
     20 C         139.8746  138.8707  164.3393 C.3     1  UNL1        0.0350
     21 C         138.9633  138.5282  165.4804 C.3     1  UNL1        0.0101
     22 C         138.0700  139.7070  165.7301 C.3     1  UNL1        0.0264
     23 C         138.4291  140.7780  164.7434 C.ar    1  UNL1       -0.0256
     24 C         137.8847  142.1572  164.5164 C.ar    1  UNL1        0.0021
     25 C         138.4556  143.0195  163.4300 C.ar    1  UNL1        0.0342
     26 BR        137.9111  144.3987  163.2030 Br      1  UNL1       -0.0490
     27 C         139.5708  142.5027  162.5704 C.ar    1  UNL1        0.0064
     28 C         140.1153  141.1236  162.7973 C.ar    1  UNL1       -0.0040
     29 C         139.5444  140.2612  163.8838 C.ar    1  UNL1       -0.0254
     30 C         140.7859  139.2133  163.1982 C.3     1  UNL1        0.0761
@<TRIPOS>BOND
     1    10    11    1
     2    11    12   ar
     3    12    13   ar
     4    13    14   ar
     5    14    15   ar
     6    15     4    1
     7     4     5   ar
     8     5     6   ar
     9     6     7   ar
    10     7     3    1
    11     3     2    1
    12     2     1    1
    13     1    16    1
    14    16    17    1
    15    17    18    1
    16    18    19    1
    17    19    20    1
    18    20    21    1
    19    21    22    1
    20    22    23    1
    21    23    24   ar
    22    24    25   ar
    23    25    26    1
    24    25    27   ar
    25    27    28   ar
    26    28    29   ar
    27    20    30    1
    28     7     8   ar
    29     8     9    1
    30    15    11   ar
    31     8     4   ar
    32    30    17    1
    33    29    20    1
    34    29    23   ar
@<TRIPOS>MOLECULE
*****
 30 34 0 0 0
SMALL
GASTEIGER

@<TRIPOS>ATOM
      1 C         137.8295  139.1560  161.5240 C.3     1  UNL1        0.0294
      2 C         138.3603  139.4667  160.1559 C.3     1  UNL1        0.0666
      3 S         138.3713  140.8820  159.6592 S.3     1  UNL1       -0.0756
      4 C         140.4050  143.3289  161.8824 C.ar    1  UNL1        0.2029
      5 N         139.0648  144.0023  161.8609 N.ar    1  UNL1       -0.1250
      6 N         138.1399  143.1677  161.0255 N.ar    1  UNL1       -0.1220
      7 C         138.9084  141.9784  160.5307 C.ar    1  UNL1        0.1933
      8 N         140.3083  142.0780  161.0602 N.ar    1  UNL1       -0.2860
      9 C         141.4169  141.0986  160.8113 C.3     1  UNL1        0.1341
     10 C         141.1622  142.7443  165.0024 C.3     1  UNL1        0.0556
     11 C         141.9752  143.5514  164.0341 C.ar    1  UNL1        0.1001
     12 N         143.2791  144.2314  164.3299 N.ar    1  UNL1       -0.2085
     13 C         143.7369  144.9204  163.0786 C.ar    1  UNL1        0.2849
     14 O         142.7160  144.6662  162.0095 O.2     1  UNL1       -0.4283
     15 C         141.6272  143.8201  162.6000 C.ar    1  UNL1        0.1964
     16 C         138.3993  138.0109  162.3075 C.3     1  UNL1        0.0730
     17 N         139.7554  138.1338  162.9368 N.3     1  UNL1       -0.2724
     18 C         141.0633  137.7919  162.2867 C.3     1  UNL1        0.0725
     19 C         142.1578  138.0671  163.2748 C.3     1  UNL1        0.0227
     20 C         141.5264  138.5790  164.5355 C.3     1  UNL1        0.0350
     21 C         143.0112  138.5378  164.7444 C.3     1  UNL1        0.0101
     22 C         143.2974  139.0242  166.1342 C.3     1  UNL1        0.0264
     23 C         141.9895  139.3661  166.7841 C.ar    1  UNL1       -0.0256
     24 C         141.6538  139.8924  168.1480 C.ar    1  UNL1        0.0021
     25 C         140.2236  140.1436  168.5239 C.ar    1  UNL1        0.0342
     26 BR        139.8878  140.6699  169.8878 Br      1  UNL1       -0.0490
     27 C         139.1290  139.8685  167.5359 C.ar    1  UNL1        0.0064
     28 C         139.4647  139.3421  166.1720 C.ar    1  UNL1       -0.0040
     29 C         140.8950  139.0910  165.7961 C.ar    1  UNL1       -0.0254
     30 C         140.0416  138.6203  164.3265 C.3     1  UNL1        0.0761
@<TRIPOS>BOND
     1    10    11    1
     2    11    12   ar
     3    12    13   ar
     4    13    14   ar
     5    14    15   ar
     6    15     4    1
     7     4     5   ar
     8     5     6   ar
     9     6     7   ar
    10     7     3    1
    11     3     2    1
    12     2     1    1
    13     1    16    1
    14    16    17    1
    15    17    18    1
    16    18    19    1
    17    19    20    1
    18    20    21    1
    19    21    22    1
    20    22    23    1
    21    23    24   ar
    22    24    25   ar
    23    25    26    1
    24    25    27   ar
    25    27    28   ar
    26    28    29   ar
    27    20    30    1
    28     7     8   ar
    29     8     9    1
    30    15    11   ar
    31     8     4   ar
    32    30    17    1
    33    29    20    1
    34    29    23   ar
@<TRIPOS>MOLECULE
*****
 30 34 0 0 0
SMALL
GASTEIGER

@<TRIPOS>ATOM
      1 C         139.3660  145.1858  163.1472 C.3     1  UNL1        0.0294
      2 C         139.8533  145.9126  161.9288 C.3     1  UNL1        0.0666
      3 S         140.7438  145.2138  160.9447 S.3     1  UNL1       -0.0756
      4 C         142.9554  142.2070  162.0095 C.ar    1  UNL1        0.2029
      5 N         143.8543  143.3605  162.3432 N.ar    1  UNL1       -0.1250
      6 N         143.1353  144.6273  161.9849 N.ar    1  UNL1       -0.1220
      7 C         141.7919  144.2566  161.4298 C.ar    1  UNL1        0.1933
      8 N         141.6807  142.7609  161.4450 N.ar    1  UNL1       -0.2860
      9 C         140.5019  141.9596  160.9778 C.3     1  UNL1        0.1341
     10 C         143.0229  140.6266  164.8639 C.3     1  UNL1        0.0556
     11 C         143.3060  140.0282  163.5179 C.ar    1  UNL1        0.1001
     12 N         143.6698  138.5984  163.2475 N.ar    1  UNL1       -0.2085
     13 C         143.8636  138.4410  161.7684 C.ar    1  UNL1        0.2849
     14 O         143.6196  139.7737  161.1247 O.2     1  UNL1       -0.4283
     15 C         143.2749  140.7546  162.2059 C.ar    1  UNL1        0.1964
     16 C         138.1072  144.3727  163.0821 C.3     1  UNL1        0.0730
     17 N         138.1156  142.9403  163.5274 N.3     1  UNL1       -0.2724
     18 C         137.3894  141.8070  162.8656 C.3     1  UNL1        0.0725
     19 C         137.6768  140.5561  163.6419 C.3     1  UNL1        0.0227
     20 C         138.5807  140.9164  164.7835 C.3     1  UNL1        0.0350
     21 C         138.3094  139.4428  164.8543 C.3     1  UNL1        0.0101
     22 C         139.0457  138.8924  166.0396 C.3     1  UNL1        0.0264
     23 C         139.7719  140.0257  166.7013 C.ar    1  UNL1       -0.0256
     24 C         140.6578  140.0804  167.9105 C.ar    1  UNL1        0.0021
     25 C         141.2564  141.3859  168.3434 C.ar    1  UNL1        0.0342
     26 BR        142.1423  141.4405  169.5527 Br      1  UNL1       -0.0490
     27 C         140.9690  142.6367  167.5672 C.ar    1  UNL1        0.0064
     28 C         140.0831  142.5821  166.3580 C.ar    1  UNL1       -0.0040
     29 C         139.4846  141.2766  165.9251 C.ar    1  UNL1       -0.0254
     30 C         138.8519  142.3899  164.7127 C.3     1  UNL1        0.0761
@<TRIPOS>BOND
     1    10    11    1
     2    11    12   ar
     3    12    13   ar
     4    13    14   ar
     5    14    15   ar
     6    15     4    1
     7     4     5   ar
     8     5     6   ar
     9     6     7   ar
    10     7     3    1
    11     3     2    1
    12     2     1    1
    13     1    16    1
    14    16    17    1
    15    17    18    1
    16    18    19    1
    17    19    20    1
    18    20    21    1
    19    21    22    1
    20    22    23    1
    21    23    24   ar
    22    24    25   ar
    23    25    26    1
    24    25    27   ar
    25    27    28   ar
    26    28    29   ar
    27    20    30    1
    28     7     8   ar
    29     8     9    1
    30    15    11   ar
    31     8     4   ar
    32    30    17    1
    33    29    20    1
    34    29    23   ar
@<TRIPOS>MOLECULE
*****
 30 34 0 0 0
SMALL
GASTEIGER

@<TRIPOS>ATOM
      1 C         141.0107  145.3382  163.3709 C.3     1  UNL1        0.0294
      2 C         140.6858  145.6907  161.9495 C.3     1  UNL1        0.0666
      3 S         139.9973  144.6917  161.0677 S.3     1  UNL1       -0.0756
      4 C         138.5989  141.3796  162.5306 C.ar    1  UNL1        0.2029
      5 N         137.4209  142.2923  162.7017 N.ar    1  UNL1       -0.1250
      6 N         137.8013  143.6440  162.1745 N.ar    1  UNL1       -0.1220
      7 C         139.2145  143.5668  161.6776 C.ar    1  UNL1        0.1933
      8 N         139.7075  142.1674  161.8976 N.ar    1  UNL1       -0.2860
      9 C         141.0698  141.6470  161.5464 C.3     1  UNL1        0.1341
     10 C         138.5031  140.2139  165.5772 C.3     1  UNL1        0.0556
     11 C         138.6140  139.3973  164.3238 C.ar    1  UNL1        0.1001
     12 N         138.7004  137.9016  164.2507 N.ar    1  UNL1       -0.2085
     13 C         138.7978  137.5130  162.8052 C.ar    1  UNL1        0.2849
     14 O         138.7717  138.7686  161.9849 O.2     1  UNL1       -0.4283
     15 C         138.6581  139.9331  162.9234 C.ar    1  UNL1        0.1964
     16 C         142.4279  145.0459  163.7661 C.3     1  UNL1        0.0730
     17 N         142.8394  143.6425  164.0992 N.3     1  UNL1       -0.2724
     18 C         143.8447  142.8175  163.3517 C.3     1  UNL1        0.0725
     19 C         143.9444  141.4828  164.0288 C.3     1  UNL1        0.0227
     20 C         143.0006  141.4828  165.1947 C.3     1  UNL1        0.0350
     21 C         143.6836  140.1480  165.1512 C.3     1  UNL1        0.0101
     22 C         143.1619  139.3231  166.2903 C.3     1  UNL1        0.0264
     23 C         142.1566  140.1480  167.0376 C.ar    1  UNL1       -0.0256
     24 C         141.3190  139.8563  168.2473 C.ar    1  UNL1        0.0021
     25 C         140.3817  140.8992  168.7799 C.ar    1  UNL1        0.0342
     26 BR        139.5441  140.6075  169.9896 Br      1  UNL1       -0.0490
     27 C         140.2820  142.2340  168.1029 C.ar    1  UNL1        0.0064
     28 C         141.1196  142.5257  166.8932 C.ar    1  UNL1       -0.0040
     29 C         142.0569  141.4828  166.3606 C.ar    1  UNL1       -0.0254
     30 C         142.3177  142.8176  165.2382 C.3     1  UNL1        0.0761
@<TRIPOS>BOND
     1    10    11    1
     2    11    12   ar
     3    12    13   ar
     4    13    14   ar
     5    14    15   ar
     6    15     4    1
     7     4     5   ar
     8     5     6   ar
     9     6     7   ar
    10     7     3    1
    11     3     2    1
    12     2     1    1
    13     1    16    1
    14    16    17    1
    15    17    18    1
    16    18    19    1
    17    19    20    1
    18    20    21    1
    19    21    22    1
    20    22    23    1
    21    23    24   ar
    22    24    25   ar
    23    25    26    1
    24    25    27   ar
    25    27    28   ar
    26    28    29   ar
    27    20    30    1
    28     7     8   ar
    29     8     9    1
    30    15    11   ar
    31     8     4   ar
    32    30    17    1
    33    29    20    1
    34    29    23   ar
@<TRIPOS>MOLECULE
*****
 30 34 0 0 0
SMALL
GASTEIGER

@<TRIPOS>ATOM
      1 C         137.7233  144.1702  163.8057 C.3     1  UNL1        0.0294
      2 C         137.4989  142.7494  164.2314 C.3     1  UNL1        0.0666
      3 S         137.4921  141.6523  163.2086 S.3     1  UNL1       -0.0756
      4 C         140.4501  139.1660  162.8413 C.ar    1  UNL1        0.2029
      5 N         139.6811  138.5377  163.9656 N.ar    1  UNL1       -0.1250
      6 N         138.4795  139.3926  164.2401 N.ar    1  UNL1       -0.1220
      7 C         138.5058  140.5492  163.2853 C.ar    1  UNL1        0.1933
      8 N         139.7236  140.4093  162.4209 N.ar    1  UNL1       -0.2860
      9 C         140.1416  141.3477  161.3279 C.3     1  UNL1        0.1341
     10 C         143.3948  139.2174  164.2468 C.3     1  UNL1        0.0556
     11 C         143.0756  138.6666  162.8886 C.ar    1  UNL1        0.1001
     12 N         144.0538  138.0426  161.9379 N.ar    1  UNL1       -0.2085
     13 C         143.3049  137.6334  160.7044 C.ar    1  UNL1        0.2849
     14 O         141.8637  138.0044  160.8926 O.2     1  UNL1       -0.4283
     15 C         141.7220  138.6429  162.2425 C.ar    1  UNL1        0.1964
     16 C         138.7835  144.4917  162.7945 C.3     1  UNL1        0.0730
     17 N         140.2308  144.4530  163.1871 N.3     1  UNL1       -0.2724
     18 C         141.3362  145.2488  162.5589 C.3     1  UNL1        0.0725
     19 C         142.6152  144.8993  163.2603 C.3     1  UNL1        0.0227
     20 C         142.3003  143.8875  164.3219 C.3     1  UNL1        0.0350
     21 C         143.7740  144.1634  164.3672 C.3     1  UNL1        0.0101
     22 C         144.3698  143.3221  165.4568 C.3     1  UNL1        0.0264
     23 C         143.2643  142.5263  166.0849 C.ar    1  UNL1       -0.0256
     24 C         143.2570  141.5286  167.2050 C.ar    1  UNL1        0.0021
     25 C         141.9708  140.8803  167.6236 C.ar    1  UNL1        0.0342
     26 BR        141.9635  139.8826  168.7437 Br      1  UNL1       -0.0490
     27 C         140.6918  141.2298  166.9223 C.ar    1  UNL1        0.0064
     28 C         140.6990  142.2275  165.8022 C.ar    1  UNL1       -0.0040
     29 C         141.9853  142.8757  165.3836 C.ar    1  UNL1       -0.0254
     30 C         140.8265  143.6117  164.2767 C.3     1  UNL1        0.0761
@<TRIPOS>BOND
     1    10    11    1
     2    11    12   ar
     3    12    13   ar
     4    13    14   ar
     5    14    15   ar
     6    15     4    1
     7     4     5   ar
     8     5     6   ar
     9     6     7   ar
    10     7     3    1
    11     3     2    1
    12     2     1    1
    13     1    16    1
    14    16    17    1
    15    17    18    1
    16    18    19    1
    17    19    20    1
    18    20    21    1
    19    21    22    1
    20    22    23    1
    21    23    24   ar
    22    24    25   ar
    23    25    26    1
    24    25    27   ar
    25    27    28   ar
    26    28    29   ar
    27    20    30    1
    28     7     8   ar
    29     8     9    1
    30    15    11   ar
    31     8     4   ar
    32    30    17    1
    33    29    20    1
    34    29    23   ar
@<TRIPOS>MOLECULE
*****
 30 34 0 0 0
SMALL
GASTEIGER

@<TRIPOS>ATOM
      1 C         141.2521  138.4039  161.1054 C.3     1  UNL1        0.0294
      2 C         141.8284  138.0691  162.4493 C.3     1  UNL1        0.0666
      3 S         141.0118  137.2997  163.4449 S.3     1  UNL1       -0.0756
      4 C         139.5985  139.3461  166.4249 C.ar    1  UNL1        0.2029
      5 N         138.3356  138.9609  165.7129 N.ar    1  UNL1       -0.1250
      6 N         138.7113  138.1475  164.5099 N.ar    1  UNL1       -0.1220
      7 C         140.2064  138.0299  164.4784 C.ar    1  UNL1        0.1933
      8 N         140.7547  138.7707  165.6619 N.ar    1  UNL1       -0.2860
      9 C         142.2046  138.9113  166.0196 C.3     1  UNL1        0.1341
     10 C         140.8765  142.3382  166.6771 C.3     1  UNL1        0.0556
     11 C         140.2766  141.5386  167.7955 C.ar    1  UNL1        0.1001
     12 N         140.1588  141.9737  169.2261 N.ar    1  UNL1       -0.2085
     13 C         139.4986  140.8674  169.9943 C.ar    1  UNL1        0.2849
     14 O         139.2083  139.7485  169.0385 O.2     1  UNL1       -0.4283
     15 C         139.6892  140.1632  167.6795 C.ar    1  UNL1        0.1964
     16 C         139.7734  138.6032  160.9519 C.3     1  UNL1        0.0730
     17 N         139.1137  139.8118  161.5468 N.3     1  UNL1       -0.2724
     18 C         137.6364  140.0290  161.6905 C.3     1  UNL1        0.0725
     19 C         137.4252  141.3669  162.3350 C.3     1  UNL1        0.0227
     20 C         138.7718  141.9766  162.5897 C.3     1  UNL1        0.0350
     21 C         137.7283  142.9377  163.0768 C.3     1  UNL1        0.0101
     22 C         138.4300  144.1413  163.6325 C.3     1  UNL1        0.0264
     23 C         139.9072  143.9241  163.4888 C.ar    1  UNL1       -0.0256
     24 C         141.0873  144.7717  163.8616 C.ar    1  UNL1        0.0021
     25 C         142.4786  144.2815  163.5899 C.ar    1  UNL1        0.0342
     26 BR        143.6586  145.1291  163.9627 Br      1  UNL1       -0.0490
     27 C         142.6899  142.9436  162.9454 C.ar    1  UNL1        0.0064
     28 C         141.5098  142.0960  162.5726 C.ar    1  UNL1       -0.0040
     29 C         140.1185  142.5863  162.8443 C.ar    1  UNL1       -0.0254
     30 C         139.8154  141.0155  162.1025 C.3     1  UNL1        0.0761
@<TRIPOS>BOND
     1    10    11    1
     2    11    12   ar
     3    12    13   ar
     4    13    14   ar
     5    14    15   ar
     6    15     4    1
     7     4     5   ar
     8     5     6   ar
     9     6     7   ar
    10     7     3    1
    11     3     2    1
    12     2     1    1
    13     1    16    1
    14    16    17    1
    15    17    18    1
    16    18    19    1
    17    19    20    1
    18    20    21    1
    19    21    22    1
    20    22    23    1
    21    23    24   ar
    22    24    25   ar
    23    25    26    1
    24    25    27   ar
    25    27    28   ar
    26    28    29   ar
    27    20    30    1
    28     7     8   ar
    29     8     9    1
    30    15    11   ar
    31     8     4   ar
    32    30    17    1
    33    29    20    1
    34    29    23   ar
@<TRIPOS>MOLECULE
*****
 30 34 0 0 0
SMALL
GASTEIGER

@<TRIPOS>ATOM
      1 C         144.5455  142.3585  162.0332 C.3     1  UNL1        0.0294
      2 C         145.3904  141.6314  163.0369 C.3     1  UNL1        0.0666
      3 S         144.7674  140.6120  163.9438 S.3     1  UNL1       -0.0756
      4 C         142.4300  141.0399  167.0129 C.ar    1  UNL1        0.2029
      5 N         142.9580  142.4349  166.8538 N.ar    1  UNL1       -0.1250
      6 N         143.8978  142.4444  165.6848 N.ar    1  UNL1       -0.1220
      7 C         143.9507  141.0552  165.1213 C.ar    1  UNL1        0.1933
      8 N         143.0436  140.1872  165.9420 N.ar    1  UNL1       -0.2860
      9 C         142.7938  138.7235  165.7294 C.3     1  UNL1        0.1341
     10 C         139.3384  140.1332  166.4937 C.3     1  UNL1        0.0556
     11 C         140.0379  140.1618  167.8203 C.ar    1  UNL1        0.1001
     12 N         139.4392  139.7787  169.1413 N.ar    1  UNL1       -0.2085
     13 C         140.4902  139.9587  170.1962 C.ar    1  UNL1        0.2849
     14 O         141.7385  140.4531  169.5273 O.2     1  UNL1       -0.4283
     15 C         141.4589  140.5786  168.0590 C.ar    1  UNL1        0.1964
     16 C         144.0253  143.7306  162.3441 C.3     1  UNL1        0.0730
     17 N         142.6550  143.8981  162.9307 N.3     1  UNL1       -0.2724
     18 C         142.1643  145.0894  163.6989 C.3     1  UNL1        0.0725
     19 C         140.7408  144.8312  164.0950 C.3     1  UNL1        0.0227
     20 C         140.3516  143.4804  163.5716 C.3     1  UNL1        0.0350
     21 C         139.1686  144.0571  164.2913 C.3     1  UNL1        0.0101
     22 C         138.0483  143.0627  164.2126 C.3     1  UNL1        0.0264
     23 C         138.5390  141.8716  163.4444 C.ar    1  UNL1       -0.0256
     24 C         137.8735  140.5851  163.0544 C.ar    1  UNL1        0.0021
     25 C         138.6314  139.5568  162.2683 C.ar    1  UNL1        0.0342
     26 BR        137.9659  138.2703  161.8783 Br      1  UNL1       -0.0490
     27 C         140.0549  139.8149  161.8721 C.ar    1  UNL1        0.0064
     28 C         140.7205  141.1013  162.2621 C.ar    1  UNL1       -0.0040
     29 C         139.9625  142.1296  163.0483 C.ar    1  UNL1       -0.0254
     30 C         141.5347  142.9037  162.8520 C.3     1  UNL1        0.0761
@<TRIPOS>BOND
     1    10    11    1
     2    11    12   ar
     3    12    13   ar
     4    13    14   ar
     5    14    15   ar
     6    15     4    1
     7     4     5   ar
     8     5     6   ar
     9     6     7   ar
    10     7     3    1
    11     3     2    1
    12     2     1    1
    13     1    16    1
    14    16    17    1
    15    17    18    1
    16    18    19    1
    17    19    20    1
    18    20    21    1
    19    21    22    1
    20    22    23    1
    21    23    24   ar
    22    24    25   ar
    23    25    26    1
    24    25    27   ar
    25    27    28   ar
    26    28    29   ar
    27    20    30    1
    28     7     8   ar
    29     8     9    1
    30    15    11   ar
    31     8     4   ar
    32    30    17    1
    33    29    20    1
    34    29    23   ar
