@<TRIPOS>MOLECULE
*****
 32 35 0 0 0
SMALL
GASTEIGER

@<TRIPOS>ATOM
      1 C         142.0378  143.7339  160.8122 C.2     1  UNL1        0.2534
      2 O         142.3472  142.2887  161.0683 O.2     1  UNL1       -0.2695
      3 N         142.5193  144.7848  161.7680 N.am    1  UNL1       -0.2965
      4 H         142.3162  145.7333  161.5999 H       1  UNL1        0.1501
      5 C         137.4587  144.3560  154.4664 C.3     1  UNL1        0.0537
      6 C         138.4017  144.7162  155.5759 C.ar    1  UNL1        0.0771
      7 N         138.9176  146.1195  155.6958 N.ar    1  UNL1       -0.1522
      8 N         139.8606  146.4797  156.8053 N.ar    1  UNL1       -0.1416
      9 C         140.2876  145.4366  157.7950 C.ar    1  UNL1        0.1333
     10 S         141.1993  145.4953  158.9847 S.2     1  UNL1       -0.0604
     11 C         141.2468  144.1281  159.6002 C.ar    1  UNL1        0.0971
     12 C         140.3645  143.2246  158.7908 C.ar    1  UNL1        0.0538
     13 N         140.1182  141.7680  159.0513 N.pl3   1  UNL1       -0.3564
     14 C         139.7717  144.0333  157.6751 C.ar    1  UNL1        0.0363
     15 C         138.8287  143.6731  156.5656 C.ar    1  UNL1       -0.0033
     16 C         138.3128  142.2696  156.4458 C.3     1  UNL1        0.0324
     17 H         140.5556  141.3234  159.8131 H       1  UNL1        0.1424
     18 H         139.5192  141.2567  158.4606 H       1  UNL1        0.1424
     19 C         143.3102  144.3905  162.9800 C.3     1  UNL1        0.1166
     20 C         142.6216  143.7533  164.1504 C.ar    1  UNL1       -0.0026
     21 C         143.4153  142.9644  165.1492 C.ar    1  UNL1       -0.0026
     22 C         142.7266  142.3273  166.3195 C.ar    1  UNL1       -0.0001
     23 C         141.2442  142.4791  166.4911 C.ar    1  UNL1        0.0037
     24 C         140.4505  143.2680  165.4923 C.ar    1  UNL1       -0.0001
     25 C         141.1392  143.9051  164.3220 C.ar    1  UNL1       -0.0026
     26 C         140.5555  141.8419  167.6615 C.ar    1  UNL1        0.0460
     27 C         140.4554  142.5781  168.9646 C.ar    1  UNL1        0.0054
     28 C         139.7667  141.9409  170.1350 C.ar    1  UNL1        0.0208
     29 C         139.1782  140.5676  170.0023 C.ar    1  UNL1        0.1013
     30 N         139.2784  139.8314  168.6992 N.ar    1  UNL1       -0.2165
     31 C         139.9671  140.4686  167.5288 C.ar    1  UNL1        0.2222
     32 F         140.0673  139.7324  166.2257 F       1  UNL1       -0.1832
@<TRIPOS>BOND
     1     5     6    1
     2     6     7   ar
     3     7     8   ar
     4     8     9   ar
     5     9    10   ar
     6    10    11   ar
     7    11     1    1
     8     1     2    2
     9     1     3   am
    10     3    19    1
    11    19    20    1
    12    20    21   ar
    13    21    22   ar
    14    22    23   ar
    15    23    26    1
    16    26    27   ar
    17    27    28   ar
    18    28    29   ar
    19    29    30   ar
    20    30    31   ar
    21    31    32    1
    22    23    24   ar
    23    24    25   ar
    24    11    12   ar
    25    12    13    1
    26    12    14   ar
    27    14    15   ar
    28    15    16    1
    29    15     6   ar
    30    14     9   ar
    31    25    20   ar
    32    31    26   ar
    33     3     4    1
    34    13    17    1
    35    13    18    1
@<TRIPOS>MOLECULE
*****
 32 35 0 0 0
SMALL
GASTEIGER

@<TRIPOS>ATOM
      1 C         141.2018  138.5514  161.4543 C.2     1  UNL1        0.2534
      2 O         139.8614  139.1944  161.6541 O.2     1  UNL1       -0.2695
      3 N         141.7007  137.5358  162.4389 N.am    1  UNL1       -0.2965
      4 H         142.5805  137.1138  162.3078 H       1  UNL1        0.1501
      5 C         145.8073  141.8014  155.9907 C.3     1  UNL1        0.0537
      6 C         144.9371  140.8108  156.7059 C.ar    1  UNL1        0.0771
      7 N         144.6541  139.4752  156.0847 N.ar    1  UNL1       -0.1522
      8 N         143.7839  138.4846  156.7999 N.ar    1  UNL1       -0.1416
      9 C         143.1967  138.8297  158.1363 C.ar    1  UNL1        0.1333
     10 S         142.3090  138.0626  159.0709 S.2     1  UNL1       -0.0604
     11 C         142.0433  138.9241  160.2697 C.ar    1  UNL1        0.0971
     12 C         142.7668  140.2237  160.0761 C.ar    1  UNL1        0.0538
     13 N         142.7760  141.3788  161.0329 N.pl3   1  UNL1       -0.3564
     14 C         143.4797  140.1653  158.7575 C.ar    1  UNL1        0.0363
     15 C         144.3499  141.1559  158.0423 C.ar    1  UNL1       -0.0033
     16 C         144.6329  142.4916  158.6636 C.3     1  UNL1        0.0324
     17 H         142.2744  141.3219  161.8781 H       1  UNL1        0.1424
     18 H         143.2835  142.1940  160.8157 H       1  UNL1        0.1424
     19 C         140.8592  137.1631  163.6234 C.3     1  UNL1        0.1166
     20 C         140.7113  138.1200  164.7691 C.ar    1  UNL1       -0.0026
     21 C         141.9251  138.5928  165.5128 C.ar    1  UNL1       -0.0026
     22 C         141.7772  139.5496  166.6585 C.ar    1  UNL1       -0.0001
     23 C         140.4155  140.0335  167.0605 C.ar    1  UNL1        0.0037
     24 C         139.2017  139.5606  166.3169 C.ar    1  UNL1       -0.0001
     25 C         139.3496  138.6038  165.1711 C.ar    1  UNL1       -0.0026
     26 C         140.2676  140.9903  168.2063 C.ar    1  UNL1        0.0460
     27 C         141.0909  142.2434  168.2481 C.ar    1  UNL1        0.0054
     28 C         140.9430  143.2002  169.3938 C.ar    1  UNL1        0.0208
     29 C         139.9718  142.9038  170.4978 C.ar    1  UNL1        0.1013
     30 N         139.1484  141.6506  170.4561 N.ar    1  UNL1       -0.2165
     31 C         139.2963  140.6939  169.3103 C.ar    1  UNL1        0.2222
     32 F         138.4729  139.4407  169.2685 F       1  UNL1       -0.1832
@<TRIPOS>BOND
     1     5     6    1
     2     6     7   ar
     3     7     8   ar
     4     8     9   ar
     5     9    10   ar
     6    10    11   ar
     7    11     1    1
     8     1     2    2
     9     1     3   am
    10     3    19    1
    11    19    20    1
    12    20    21   ar
    13    21    22   ar
    14    22    23   ar
    15    23    26    1
    16    26    27   ar
    17    27    28   ar
    18    28    29   ar
    19    29    30   ar
    20    30    31   ar
    21    31    32    1
    22    23    24   ar
    23    24    25   ar
    24    11    12   ar
    25    12    13    1
    26    12    14   ar
    27    14    15   ar
    28    15    16    1
    29    15     6   ar
    30    14     9   ar
    31    25    20   ar
    32    31    26   ar
    33     3     4    1
    34    13    17    1
    35    13    18    1
@<TRIPOS>MOLECULE
*****
 32 35 0 0 0
SMALL
GASTEIGER

@<TRIPOS>ATOM
      1 C         138.5724  142.9019  161.6317 C.2     1  UNL1        0.2534
      2 O         137.6481  143.7776  162.4247 O.2     1  UNL1       -0.2695
      3 N         138.7438  141.4594  162.0058 N.am    1  UNL1       -0.2965
      4 H         139.3505  140.8847  161.4853 H       1  UNL1        0.1501
      5 C         141.7014  144.8913  154.7125 C.3     1  UNL1        0.0537
      6 C         141.4186  144.8615  156.1853 C.ar    1  UNL1        0.0771
      7 N         142.1571  145.7836  157.1096 N.ar    1  UNL1       -0.1522
      8 N         141.8744  145.7538  158.5824 N.ar    1  UNL1       -0.1416
      9 C         140.8531  144.8019  159.1310 C.ar    1  UNL1        0.1333
     10 S         140.3653  144.5478  160.5265 S.2     1  UNL1       -0.0604
     11 C         139.3253  143.4686  160.4647 C.ar    1  UNL1        0.0971
     12 C         139.1703  143.0558  159.0310 C.ar    1  UNL1        0.0538
     13 N         138.2353  142.0037  158.5125 N.pl3   1  UNL1       -0.3564
     14 C         140.1146  143.8798  158.2067 C.ar    1  UNL1        0.0363
     15 C         140.3974  143.9096  156.7339 C.ar    1  UNL1       -0.0033
     16 C         139.6588  142.9875  155.8096 C.3     1  UNL1        0.0324
     17 H         137.6512  141.5140  159.1356 H       1  UNL1        0.1424
     18 H         138.2058  141.8028  157.5492 H       1  UNL1        0.1424
     19 C         137.9910  140.8927  163.1728 C.3     1  UNL1        0.1166
     20 C         138.6269  140.8596  164.5310 C.ar    1  UNL1       -0.0026
     21 C         139.4451  142.0241  165.0047 C.ar    1  UNL1       -0.0026
     22 C         140.0809  141.9909  166.3628 C.ar    1  UNL1       -0.0001
     23 C         139.8987  140.7932  167.2472 C.ar    1  UNL1        0.0037
     24 C         139.0805  139.6287  166.7735 C.ar    1  UNL1       -0.0001
     25 C         138.4446  139.6619  165.4154 C.ar    1  UNL1       -0.0026
     26 C         140.5346  140.7601  168.6054 C.ar    1  UNL1        0.0460
     27 C         142.0153  140.9547  168.7452 C.ar    1  UNL1        0.0054
     28 C         142.6512  140.9216  170.1034 C.ar    1  UNL1        0.0208
     29 C         141.8064  140.6938  171.3217 C.ar    1  UNL1        0.1013
     30 N         140.3256  140.4991  171.1819 N.ar    1  UNL1       -0.2165
     31 C         139.6897  140.5323  169.8237 C.ar    1  UNL1        0.2222
     32 F         138.2090  140.3376  169.6839 F       1  UNL1       -0.1832
@<TRIPOS>BOND
     1     5     6    1
     2     6     7   ar
     3     7     8   ar
     4     8     9   ar
     5     9    10   ar
     6    10    11   ar
     7    11     1    1
     8     1     2    2
     9     1     3   am
    10     3    19    1
    11    19    20    1
    12    20    21   ar
    13    21    22   ar
    14    22    23   ar
    15    23    26    1
    16    26    27   ar
    17    27    28   ar
    18    28    29   ar
    19    29    30   ar
    20    30    31   ar
    21    31    32    1
    22    23    24   ar
    23    24    25   ar
    24    11    12   ar
    25    12    13    1
    26    12    14   ar
    27    14    15   ar
    28    15    16    1
    29    15     6   ar
    30    14     9   ar
    31    25    20   ar
    32    31    26   ar
    33     3     4    1
    34    13    17    1
    35    13    18    1
@<TRIPOS>MOLECULE
*****
 32 35 0 0 0
SMALL
GASTEIGER

@<TRIPOS>ATOM
      1 C         138.2428  142.5888  161.3755 C.2     1  UNL1        0.2534
      2 O         137.7338  143.7897  162.1164 O.2     1  UNL1       -0.2695
      3 N         138.0840  141.2196  161.9673 N.am    1  UNL1       -0.2965
      4 H         138.4180  140.4315  161.4811 H       1  UNL1        0.1501
      5 C         142.1892  144.7947  154.9581 C.3     1  UNL1        0.0537
      6 C         141.3528  143.9782  155.8982 C.ar    1  UNL1        0.0771
      7 N         140.8365  142.6365  155.4701 N.ar    1  UNL1       -0.1522
      8 N         140.0001  141.8199  156.4101 N.ar    1  UNL1       -0.1416
      9 C         139.6799  142.3451  157.7782 C.ar    1  UNL1        0.1333
     10 S         138.8854  141.7705  158.9133 S.2     1  UNL1       -0.0604
     11 C         138.9105  142.7571  160.0429 C.ar    1  UNL1        0.0971
     12 C         139.7207  143.9414  159.6060 C.ar    1  UNL1        0.0538
     13 N         140.0054  145.1655  160.4249 N.pl3   1  UNL1       -0.3564
     14 C         140.1962  143.6867  158.2063 C.ar    1  UNL1        0.0363
     15 C         141.0327  144.5033  157.2662 C.ar    1  UNL1       -0.0033
     16 C         141.5490  145.8451  157.6944 C.3     1  UNL1        0.0324
     17 H         139.6472  145.2405  161.3388 H       1  UNL1        0.1424
     18 H         140.5505  145.8937  160.0484 H       1  UNL1        0.1424
     19 C         137.4162  141.0514  163.2999 C.3     1  UNL1        0.1166
     20 C         138.2454  140.9192  164.5429 C.ar    1  UNL1       -0.0026
     21 C         139.1227  142.0533  164.9834 C.ar    1  UNL1       -0.0026
     22 C         139.9518  141.9210  166.2264 C.ar    1  UNL1       -0.0001
     23 C         139.9035  140.6547  167.0289 C.ar    1  UNL1        0.0037
     24 C         139.0262  139.5206  166.5884 C.ar    1  UNL1       -0.0001
     25 C         138.1971  139.6529  165.3454 C.ar    1  UNL1       -0.0026
     26 C         140.7327  140.5224  168.2719 C.ar    1  UNL1        0.0460
     27 C         140.2265  141.0710  169.5730 C.ar    1  UNL1        0.0054
     28 C         141.0556  140.9388  170.8161 C.ar    1  UNL1        0.0208
     29 C         142.3910  140.2580  170.7580 C.ar    1  UNL1        0.1013
     30 N         142.8971  139.7094  169.4568 N.ar    1  UNL1       -0.2165
     31 C         142.0680  139.8416  168.2139 C.ar    1  UNL1        0.2222
     32 F         142.5742  139.2930  166.9127 F       1  UNL1       -0.1832
@<TRIPOS>BOND
     1     5     6    1
     2     6     7   ar
     3     7     8   ar
     4     8     9   ar
     5     9    10   ar
     6    10    11   ar
     7    11     1    1
     8     1     2    2
     9     1     3   am
    10     3    19    1
    11    19    20    1
    12    20    21   ar
    13    21    22   ar
    14    22    23   ar
    15    23    26    1
    16    26    27   ar
    17    27    28   ar
    18    28    29   ar
    19    29    30   ar
    20    30    31   ar
    21    31    32    1
    22    23    24   ar
    23    24    25   ar
    24    11    12   ar
    25    12    13    1
    26    12    14   ar
    27    14    15   ar
    28    15    16    1
    29    15     6   ar
    30    14     9   ar
    31    25    20   ar
    32    31    26   ar
    33     3     4    1
    34    13    17    1
    35    13    18    1
@<TRIPOS>MOLECULE
*****
 32 35 0 0 0
SMALL
GASTEIGER

@<TRIPOS>ATOM
      1 C         138.7993  143.0714  161.1791 C.2     1  UNL1        0.2534
      2 O         138.4295  141.6180  161.2074 O.2     1  UNL1       -0.2695
      3 N         138.4530  143.9562  162.3397 N.am    1  UNL1       -0.2965
      4 H         138.6957  144.9101  162.3211 H       1  UNL1        0.1501
      5 C         141.6562  145.1274  154.1623 C.3     1  UNL1        0.0537
      6 C         141.4471  145.0674  155.6465 C.ar    1  UNL1        0.0771
      7 N         142.2692  145.9323  156.5553 N.ar    1  UNL1       -0.1522
      8 N         142.0600  145.8724  158.0394 N.ar    1  UNL1       -0.1416
      9 C         141.0287  144.9475  158.6147 C.ar    1  UNL1        0.1333
     10 S         140.6016  144.6740  160.0264 S.2     1  UNL1       -0.0604
     11 C         139.5155  143.6400  159.9900 C.ar    1  UNL1        0.0971
     12 C         139.2714  143.2745  158.5559 C.ar    1  UNL1        0.0538
     13 N         138.2681  142.2762  158.0589 N.pl3   1  UNL1       -0.3564
     14 C         140.2066  144.0826  157.7059 C.ar    1  UNL1        0.0363
     15 C         140.4158  144.1426  156.2218 C.ar    1  UNL1       -0.0033
     16 C         139.5936  143.2776  155.3129 C.3     1  UNL1        0.0324
     17 H         137.6962  141.7931  158.6982 H       1  UNL1        0.1424
     18 H         138.1817  142.1041  157.0935 H       1  UNL1        0.1424
     19 C         137.7368  143.3876  163.5287 C.3     1  UNL1        0.1166
     20 C         138.5082  142.6693  164.5960 C.ar    1  UNL1       -0.0026
     21 C         139.4898  143.4203  165.4460 C.ar    1  UNL1       -0.0026
     22 C         140.2611  142.7020  166.5133 C.ar    1  UNL1       -0.0001
     23 C         140.0509  141.2328  166.7306 C.ar    1  UNL1        0.0037
     24 C         139.0693  140.4818  165.8806 C.ar    1  UNL1       -0.0001
     25 C         138.2980  141.2001  164.8133 C.ar    1  UNL1       -0.0026
     26 C         140.8223  140.5145  167.7979 C.ar    1  UNL1        0.0460
     27 C         140.2609  140.4059  169.1846 C.ar    1  UNL1        0.0054
     28 C         141.0322  139.6876  170.2519 C.ar    1  UNL1        0.0208
     29 C         142.3650  139.0780  169.9325 C.ar    1  UNL1        0.1013
     30 N         142.9264  139.1866  168.5457 N.ar    1  UNL1       -0.2165
     31 C         142.1550  139.9049  167.4784 C.ar    1  UNL1        0.2222
     32 F         142.7164  140.0135  166.0916 F       1  UNL1       -0.1832
@<TRIPOS>BOND
     1     5     6    1
     2     6     7   ar
     3     7     8   ar
     4     8     9   ar
     5     9    10   ar
     6    10    11   ar
     7    11     1    1
     8     1     2    2
     9     1     3   am
    10     3    19    1
    11    19    20    1
    12    20    21   ar
    13    21    22   ar
    14    22    23   ar
    15    23    26    1
    16    26    27   ar
    17    27    28   ar
    18    28    29   ar
    19    29    30   ar
    20    30    31   ar
    21    31    32    1
    22    23    24   ar
    23    24    25   ar
    24    11    12   ar
    25    12    13    1
    26    12    14   ar
    27    14    15   ar
    28    15    16    1
    29    15     6   ar
    30    14     9   ar
    31    25    20   ar
    32    31    26   ar
    33     3     4    1
    34    13    17    1
    35    13    18    1
@<TRIPOS>MOLECULE
*****
 32 35 0 0 0
SMALL
GASTEIGER

@<TRIPOS>ATOM
      1 C         143.1647  143.6881  161.0763 C.2     1  UNL1        0.2534
      2 O         144.2980  144.0868  161.9745 O.2     1  UNL1       -0.2695
      3 N         141.7586  144.0768  161.4254 N.am    1  UNL1       -0.2965
      4 H         141.0148  143.8151  160.8359 H       1  UNL1        0.1501
      5 C         144.1979  140.8354  153.8363 C.3     1  UNL1        0.0537
      6 C         144.1458  140.9214  155.3329 C.ar    1  UNL1        0.0771
      7 N         144.5143  139.7296  156.1659 N.ar    1  UNL1       -0.1522
      8 N         144.4622  139.8155  157.6625 N.ar    1  UNL1       -0.1416
      9 C         144.0417  141.0932  158.3262 C.ar    1  UNL1        0.1333
     10 S         143.8960  141.4738  159.7698 S.2     1  UNL1       -0.0604
     11 C         143.4376  142.9008  159.8290 C.ar    1  UNL1        0.0971
     12 C         143.2999  143.4022  158.4221 C.ar    1  UNL1        0.0538
     13 N         142.8652  144.7790  158.0153 N.pl3   1  UNL1       -0.3564
     14 C         143.6733  142.2850  157.4932 C.ar    1  UNL1        0.0363
     15 C         143.7253  142.1991  155.9966 C.ar    1  UNL1       -0.0033
     16 C         143.3569  143.3910  155.1637 C.3     1  UNL1        0.0324
     17 H         142.6397  145.4471  158.7023 H       1  UNL1        0.1424
     18 H         142.8053  145.0145  157.0612 H       1  UNL1        0.1424
     19 C         141.4859  144.8641  162.6727 C.3     1  UNL1        0.1166
     20 C         141.1963  144.1520  163.9608 C.ar    1  UNL1       -0.0026
     21 C         142.2407  143.2739  164.5835 C.ar    1  UNL1       -0.0026
     22 C         141.9511  142.5619  165.8716 C.ar    1  UNL1       -0.0001
     23 C         140.6170  142.7281  166.5369 C.ar    1  UNL1        0.0037
     24 C         139.5726  143.6062  165.9142 C.ar    1  UNL1       -0.0001
     25 C         139.8622  144.3182  164.6261 C.ar    1  UNL1       -0.0026
     26 C         140.3274  142.0160  167.8250 C.ar    1  UNL1        0.0460
     27 C         140.4080  142.7575  169.1264 C.ar    1  UNL1        0.0054
     28 C         140.1184  142.0455  170.4146 C.ar    1  UNL1        0.0208
     29 C         139.7483  140.5919  170.4012 C.ar    1  UNL1        0.1013
     30 N         139.6677  139.8504  169.0997 N.ar    1  UNL1       -0.2165
     31 C         139.9573  140.5625  167.8117 C.ar    1  UNL1        0.2222
     32 F         139.8767  139.8210  166.5102 F       1  UNL1       -0.1832
@<TRIPOS>BOND
     1     5     6    1
     2     6     7   ar
     3     7     8   ar
     4     8     9   ar
     5     9    10   ar
     6    10    11   ar
     7    11     1    1
     8     1     2    2
     9     1     3   am
    10     3    19    1
    11    19    20    1
    12    20    21   ar
    13    21    22   ar
    14    22    23   ar
    15    23    26    1
    16    26    27   ar
    17    27    28   ar
    18    28    29   ar
    19    29    30   ar
    20    30    31   ar
    21    31    32    1
    22    23    24   ar
    23    24    25   ar
    24    11    12   ar
    25    12    13    1
    26    12    14   ar
    27    14    15   ar
    28    15    16    1
    29    15     6   ar
    30    14     9   ar
    31    25    20   ar
    32    31    26   ar
    33     3     4    1
    34    13    17    1
    35    13    18    1
@<TRIPOS>MOLECULE
*****
 32 35 0 0 0
SMALL
GASTEIGER

@<TRIPOS>ATOM
      1 C         144.0469  142.8479  161.2847 C.2     1  UNL1        0.2534
      2 O         144.3652  144.1047  162.0390 O.2     1  UNL1       -0.2695
      3 N         144.4645  141.5166  161.8353 N.am    1  UNL1       -0.2965
      4 H         144.2556  140.6917  161.3402 H       1  UNL1        0.1501
      5 C         139.6079  144.5031  155.0254 C.3     1  UNL1        0.0537
      6 C         140.5743  143.8023  155.9335 C.ar    1  UNL1        0.0771
      7 N         141.2325  142.5296  155.4897 N.ar    1  UNL1       -0.1522
      8 N         142.1990  141.8287  156.3978 N.ar    1  UNL1       -0.1416
      9 C         142.5073  142.4006  157.7498 C.ar    1  UNL1        0.1333
     10 S         143.4107  141.9365  158.8537 S.2     1  UNL1       -0.0604
     11 C         143.3108  142.9224  159.9798 C.ar    1  UNL1        0.0971
     12 C         142.3457  143.9958  159.5719 C.ar    1  UNL1        0.0538
     13 N         141.9472  145.1832  160.3973 N.pl3   1  UNL1       -0.3564
     14 C         141.8492  143.6733  158.1937 C.ar    1  UNL1        0.0363
     15 C         140.8827  144.3741  157.2855 C.ar    1  UNL1       -0.0033
     16 C         140.2245  145.6468  157.7294 C.3     1  UNL1        0.0324
     17 H         142.3299  145.3091  161.2956 H       1  UNL1        0.1424
     18 H         141.3029  145.8366  160.0407 H       1  UNL1        0.1424
     19 C         145.2005  141.4421  163.1401 C.3     1  UNL1        0.1166
     20 C         144.4531  141.5893  164.4323 C.ar    1  UNL1       -0.0026
     21 C         143.6810  140.4298  164.9885 C.ar    1  UNL1       -0.0026
     22 C         142.9336  140.5770  166.2806 C.ar    1  UNL1       -0.0001
     23 C         142.9582  141.8838  167.0166 C.ar    1  UNL1        0.0037
     24 C         143.7303  143.0434  166.4604 C.ar    1  UNL1       -0.0001
     25 C         144.4777  142.8961  165.1683 C.ar    1  UNL1       -0.0026
     26 C         142.2107  142.0311  168.3088 C.ar    1  UNL1        0.0460
     27 C         140.7233  141.8400  168.3408 C.ar    1  UNL1        0.0054
     28 C         139.9759  141.9872  169.6330 C.ar    1  UNL1        0.0208
     29 C         140.7159  142.3255  170.8931 C.ar    1  UNL1        0.1013
     30 N         142.2034  142.5165  170.8611 N.ar    1  UNL1       -0.2165
     31 C         142.9508  142.3693  169.5689 C.ar    1  UNL1        0.2222
     32 F         144.4383  142.5603  169.5369 F       1  UNL1       -0.1832
@<TRIPOS>BOND
     1     5     6    1
     2     6     7   ar
     3     7     8   ar
     4     8     9   ar
     5     9    10   ar
     6    10    11   ar
     7    11     1    1
     8     1     2    2
     9     1     3   am
    10     3    19    1
    11    19    20    1
    12    20    21   ar
    13    21    22   ar
    14    22    23   ar
    15    23    26    1
    16    26    27   ar
    17    27    28   ar
    18    28    29   ar
    19    29    30   ar
    20    30    31   ar
    21    31    32    1
    22    23    24   ar
    23    24    25   ar
    24    11    12   ar
    25    12    13    1
    26    12    14   ar
    27    14    15   ar
    28    15    16    1
    29    15     6   ar
    30    14     9   ar
    31    25    20   ar
    32    31    26   ar
    33     3     4    1
    34    13    17    1
    35    13    18    1
@<TRIPOS>MOLECULE
*****
 32 35 0 0 0
SMALL
GASTEIGER

@<TRIPOS>ATOM
      1 C         142.1221  136.1209  156.6103 C.2     1  UNL1        0.2534
      2 O         140.7750  136.6347  156.1967 O.2     1  UNL1       -0.2695
      3 N         142.9992  136.9489  157.5020 N.am    1  UNL1       -0.2965
      4 H         143.8834  136.6116  157.7735 H       1  UNL1        0.1501
      5 C         145.0589  128.9219  155.5269 C.3     1  UNL1        0.0537
      6 C         144.3908  130.2370  155.2547 C.ar    1  UNL1        0.0771
      7 N         143.8689  130.5432  153.8822 N.ar    1  UNL1       -0.1522
      8 N         143.2008  131.8583  153.6100 N.ar    1  UNL1       -0.1416
      9 C         143.0546  132.8673  154.7102 C.ar    1  UNL1        0.1333
     10 S         142.4463  134.2380  154.7408 S.2     1  UNL1       -0.0604
     11 C         142.5923  134.7790  156.1323 C.ar    1  UNL1        0.0971
     12 C         143.2909  133.7426  156.9616 C.ar    1  UNL1        0.0538
     13 N         143.6420  133.8661  158.4147 N.pl3   1  UNL1       -0.3564
     14 C         143.5766  132.5611  156.0827 C.ar    1  UNL1        0.0363
     15 C         144.2447  131.2460  156.3549 C.ar    1  UNL1       -0.0033
     16 C         144.7667  130.9398  157.7275 C.3     1  UNL1        0.0324
     17 H         143.4115  134.6857  158.9089 H       1  UNL1        0.1424
     18 H         144.1031  133.1274  158.8741 H       1  UNL1        0.1424
     19 C         142.5291  138.2906  157.9801 C.3     1  UNL1        0.1166
     20 C         141.8032  138.4090  159.2874 C.ar    1  UNL1       -0.0026
     21 C         140.3329  138.7052  159.3048 C.ar    1  UNL1       -0.0026
     22 C         139.6071  138.8235  160.6122 C.ar    1  UNL1       -0.0001
     23 C         140.3517  138.6457  161.9021 C.ar    1  UNL1        0.0037
     24 C         141.8220  138.3495  161.8848 C.ar    1  UNL1       -0.0001
     25 C         142.5478  138.2312  160.5774 C.ar    1  UNL1       -0.0026
     26 C         139.6258  138.7640  163.2095 C.ar    1  UNL1        0.0460
     27 C         139.5302  137.5791  164.1242 C.ar    1  UNL1        0.0054
     28 C         138.8043  137.6974  165.4316 C.ar    1  UNL1        0.0208
     29 C         138.1741  139.0008  165.8242 C.ar    1  UNL1        0.1013
     30 N         138.2698  140.1858  164.9095 N.ar    1  UNL1       -0.2165
     31 C         138.9956  140.0674  163.6022 C.ar    1  UNL1        0.2222
     32 F         139.0913  141.2524  162.6874 F       1  UNL1       -0.1832
@<TRIPOS>BOND
     1     5     6    1
     2     6     7   ar
     3     7     8   ar
     4     8     9   ar
     5     9    10   ar
     6    10    11   ar
     7    11     1    1
     8     1     2    2
     9     1     3   am
    10     3    19    1
    11    19    20    1
    12    20    21   ar
    13    21    22   ar
    14    22    23   ar
    15    23    26    1
    16    26    27   ar
    17    27    28   ar
    18    28    29   ar
    19    29    30   ar
    20    30    31   ar
    21    31    32    1
    22    23    24   ar
    23    24    25   ar
    24    11    12   ar
    25    12    13    1
    26    12    14   ar
    27    14    15   ar
    28    15    16    1
    29    15     6   ar
    30    14     9   ar
    31    25    20   ar
    32    31    26   ar
    33     3     4    1
    34    13    17    1
    35    13    18    1
@<TRIPOS>MOLECULE
*****
 32 35 0 0 0
SMALL
GASTEIGER

@<TRIPOS>ATOM
      1 C         139.4133  138.7606  161.5125 C.2     1  UNL1        0.2534
      2 O         138.3436  139.7778  161.7789 O.2     1  UNL1       -0.2695
      3 N         139.6537  137.6508  162.4925 N.am    1  UNL1       -0.2965
      4 H         140.3558  136.9831  162.3176 H       1  UNL1        0.1501
      5 C         142.4709  139.7038  154.3441 C.3     1  UNL1        0.0537
      6 C         142.3539  139.3898  155.8062 C.ar    1  UNL1        0.0771
      7 N         143.5563  138.9222  156.5714 N.ar    1  UNL1       -0.1522
      8 N         143.4393  138.6082  158.0335 N.ar    1  UNL1       -0.1416
      9 C         142.1200  138.7618  158.7304 C.ar    1  UNL1        0.1333
     10 S         141.7028  138.5293  160.1523 S.2     1  UNL1       -0.0604
     11 C         140.2426  138.8532  160.2659 C.ar    1  UNL1        0.0971
     12 C         139.7573  139.2859  158.9142 C.ar    1  UNL1        0.0538
     13 N         138.3575  139.7020  158.5716 N.pl3   1  UNL1       -0.3564
     14 C         140.9176  139.2294  157.9652 C.ar    1  UNL1        0.0363
     15 C         141.0346  139.5434  156.5031 C.ar    1  UNL1       -0.0033
     16 C         139.8321  140.0110  155.7379 C.3     1  UNL1        0.0324
     17 H         137.6610  139.7064  159.2674 H       1  UNL1        0.1424
     18 H         138.1352  139.9707  157.6509 H       1  UNL1        0.1424
     19 C         138.8244  137.5582  163.7389 C.3     1  UNL1        0.1166
     20 C         139.2087  138.3468  164.9557 C.ar    1  UNL1       -0.0026
     21 C         140.5819  138.9411  165.0615 C.ar    1  UNL1       -0.0026
     22 C         140.9660  139.7296  166.2783 C.ar    1  UNL1       -0.0001
     23 C         139.9771  139.9240  167.3892 C.ar    1  UNL1        0.0037
     24 C         138.6039  139.3298  167.2834 C.ar    1  UNL1       -0.0001
     25 C         138.2197  138.5412  166.0666 C.ar    1  UNL1       -0.0026
     26 C         140.3613  140.7126  168.6060 C.ar    1  UNL1        0.0460
     27 C         140.6469  140.0064  169.8981 C.ar    1  UNL1        0.0054
     28 C         141.0312  140.7950  171.1149 C.ar    1  UNL1        0.0208
     29 C         141.1298  142.2899  171.0394 C.ar    1  UNL1        0.1013
     30 N         140.8441  142.9961  169.7472 N.ar    1  UNL1       -0.2165
     31 C         140.4599  142.2075  168.5305 C.ar    1  UNL1        0.2222
     32 F         140.1743  142.9137  167.2383 F       1  UNL1       -0.1832
@<TRIPOS>BOND
     1     5     6    1
     2     6     7   ar
     3     7     8   ar
     4     8     9   ar
     5     9    10   ar
     6    10    11   ar
     7    11     1    1
     8     1     2    2
     9     1     3   am
    10     3    19    1
    11    19    20    1
    12    20    21   ar
    13    21    22   ar
    14    22    23   ar
    15    23    26    1
    16    26    27   ar
    17    27    28   ar
    18    28    29   ar
    19    29    30   ar
    20    30    31   ar
    21    31    32    1
    22    23    24   ar
    23    24    25   ar
    24    11    12   ar
    25    12    13    1
    26    12    14   ar
    27    14    15   ar
    28    15    16    1
    29    15     6   ar
    30    14     9   ar
    31    25    20   ar
    32    31    26   ar
    33     3     4    1
    34    13    17    1
    35    13    18    1
