@<TRIPOS>MOLECULE
*****
 37 40 0 0 0
SMALL
GASTEIGER

@<TRIPOS>ATOM
      1 C         143.2742  138.5300  162.3929 C.3     1  UNL1        0.1874
      2 C         143.7159  138.2729  160.9827 C.3     1  UNL1        0.0668
      3 C         142.4915  138.2001  160.1193 C.3     1  UNL1        0.0973
      4 N         141.2929  138.4121  160.9960 N.am    1  UNL1       -0.2754
      5 C         139.8619  138.4190  160.5465 C.2     1  UNL1        0.2302
      6 O         139.5289  138.1998  159.1004 O.2     1  UNL1       -0.2745
      7 C         141.7767  138.6161  162.4011 C.3     1  UNL1        0.1368
      8 O         144.1722  138.6756  163.5854 O.3     1  UNL1       -0.4757
      9 C         142.7620  140.9565  167.1991 C.ar    1  UNL1        0.0847
     10 C         142.5702  139.4705  167.1283 C.ar    1  UNL1        0.0224
     11 C         143.0403  138.7103  165.9237 C.ar    1  UNL1        0.0402
     12 C         143.7022  139.4359  164.7900 C.ar    1  UNL1        0.1604
     13 C         143.8940  140.9219  164.8609 C.ar    1  UNL1        0.1679
     14 N         143.4239  141.6822  166.0654 N.ar    1  UNL1       -0.2377
     15 C         139.6395  143.1863  170.8266 C.3     1  UNL1        0.1538
     16 N         140.8566  142.7418  170.0710 N.ar    1  UNL1       -0.2473
     17 C         140.8638  141.9290  168.8104 C.ar    1  UNL1        0.0982
     18 C         142.2920  141.7169  168.4037 C.ar    1  UNL1        0.0573
     19 C         143.1675  142.3986  169.4130 C.ar    1  UNL1        0.1231
     20 N         142.2804  143.0320  170.4435 N.ar    1  UNL1       -0.1675
     21 C         144.5559  141.6476  163.7271 C.2     1  UNL1        0.2635
     22 N         146.0522  141.7281  163.6600 N.am    1  UNL1       -0.3240
     23 O         143.7215  142.2927  162.6606 O.2     1  UNL1       -0.2686
     24 H         146.5999  141.3047  164.3600 H       1  UNL1        0.1453
     25 H         146.4866  142.2044  162.9159 H       1  UNL1        0.1453
     26 C         138.7638  138.6451  161.5429 C.3     1  UNL1        0.1116
     27 C         138.4604  140.0336  162.0226 C.ar    1  UNL1       -0.0129
     28 C         138.4918  141.1833  161.0597 C.ar    1  UNL1       -0.0007
     29 C         138.1885  142.5719  161.5393 C.ar    1  UNL1        0.0369
     30 C         137.8537  142.8106  162.9818 C.ar    1  UNL1        0.1468
     31 C         137.8222  141.6609  163.9447 C.ar    1  UNL1        0.0369
     32 C         138.1256  140.2724  163.4650 C.ar    1  UNL1       -0.0007
     33 O         137.5503  144.1991  163.4615 O.3     1  UNL1       -0.4045
     34 C         138.2304  144.7349  164.6864 C.3     1  UNL1        0.5753
     35 F         138.9106  145.2706  165.9113 F       1  UNL1       -0.1328
     36 F         139.4988  144.9109  163.9051 F       1  UNL1       -0.1328
     37 F         136.9621  144.5588  165.4676 F       1  UNL1       -0.1328
@<TRIPOS>BOND
     1    15    16    1
     2    16    17   ar
     3    17    18   ar
     4    18     9    1
     5     9    10   ar
     6    10    11   ar
     7    11    12   ar
     8    12     8    1
     9     1     8    1
    10     1     2    1
    11     2     3    1
    12     3     4    1
    13     4     5   am
    14     5     6    2
    15     5    26    1
    16    26    27    1
    17    27    28   ar
    18    28    29   ar
    19    29    30   ar
    20    30    33    1
    21    33    34    1
    22    34    35    1
    23    34    36    1
    24    34    37    1
    25    30    31   ar
    26    31    32   ar
    27     4     7    1
    28    12    13   ar
    29    13    21    1
    30    21    22   am
    31    21    23    2
    32    13    14   ar
    33    18    19   ar
    34    19    20   ar
    35    20    16   ar
    36    14     9   ar
    37     7     1    1
    38    32    27   ar
    39    22    24    1
    40    22    25    1
@<TRIPOS>MOLECULE
*****
 37 40 0 0 0
SMALL
GASTEIGER

@<TRIPOS>ATOM
      1 C         143.2744  138.8425  162.2012 C.3     1  UNL1        0.1874
      2 C         143.5808  138.3916  160.8038 C.3     1  UNL1        0.0668
      3 C         144.0617  139.5818  160.0277 C.3     1  UNL1        0.0973
      4 N         144.0525  140.7682  160.9455 N.am    1  UNL1       -0.2754
      5 C         144.4586  142.1661  160.5836 C.2     1  UNL1        0.2302
      6 O         144.9270  142.4746  159.1924 O.2     1  UNL1       -0.2745
      7 C         143.5659  140.3113  162.2888 C.3     1  UNL1        0.1368
      8 O         142.7657  137.9766  163.3154 O.3     1  UNL1       -0.4757
      9 C         140.9094  139.8566  166.9581 C.ar    1  UNL1        0.0847
     10 C         142.3318  139.3825  167.0012 C.ar    1  UNL1        0.0224
     11 C         142.9506  138.7559  165.7869 C.ar    1  UNL1        0.0402
     12 C         142.1469  138.6033  164.5297 C.ar    1  UNL1        0.1604
     13 C         140.7245  139.0773  164.4866 C.ar    1  UNL1        0.1679
     14 N         140.1057  139.7039  165.7008 N.ar    1  UNL1       -0.2377
     15 C         139.7960  143.2620  170.8368 C.3     1  UNL1        0.1538
     16 N         139.7788  142.0486  169.9552 N.ar    1  UNL1       -0.2473
     17 C         140.6395  141.8240  168.7475 C.ar    1  UNL1        0.0982
     18 C         140.2905  140.4832  168.1724 C.ar    1  UNL1        0.0573
     19 C         139.2141  139.8792  169.0247 C.ar    1  UNL1        0.1231
     20 N         138.8978  140.8467  170.1266 N.ar    1  UNL1       -0.1675
     21 C         139.9208  138.9246  163.2293 C.2     1  UNL1        0.2635
     22 N         139.7900  137.5781  162.5816 N.am    1  UNL1       -0.3240
     23 O         139.2478  140.1186  162.6197 O.2     1  UNL1       -0.2686
     24 H         140.2317  136.7944  162.9816 H       1  UNL1        0.1453
     25 H         139.2625  137.4779  161.7564 H       1  UNL1        0.1453
     26 C         144.3963  143.2555  161.6128 C.3     1  UNL1        0.1116
     27 C         143.0684  143.7973  162.0520 C.ar    1  UNL1       -0.0129
     28 C         142.9693  144.6140  163.3062 C.ar    1  UNL1       -0.0007
     29 C         141.6413  145.1559  163.7455 C.ar    1  UNL1        0.0369
     30 C         140.4125  144.8810  162.9304 C.ar    1  UNL1        0.1468
     31 C         140.5116  144.0643  161.6762 C.ar    1  UNL1        0.0369
     32 C         141.8396  143.5224  161.2370 C.ar    1  UNL1       -0.0007
     33 O         139.0845  145.4228  163.3697 O.3     1  UNL1       -0.4045
     34 C         138.1854  144.5926  164.2371 C.3     1  UNL1        0.5753
     35 F         137.2864  143.7623  165.1044 F       1  UNL1       -0.1328
     36 F         138.8416  145.1603  165.4606 F       1  UNL1       -0.1328
     37 F         137.5293  144.0248  163.0135 F       1  UNL1       -0.1328
@<TRIPOS>BOND
     1    15    16    1
     2    16    17   ar
     3    17    18   ar
     4    18     9    1
     5     9    10   ar
     6    10    11   ar
     7    11    12   ar
     8    12     8    1
     9     1     8    1
    10     1     2    1
    11     2     3    1
    12     3     4    1
    13     4     5   am
    14     5     6    2
    15     5    26    1
    16    26    27    1
    17    27    28   ar
    18    28    29   ar
    19    29    30   ar
    20    30    33    1
    21    33    34    1
    22    34    35    1
    23    34    36    1
    24    34    37    1
    25    30    31   ar
    26    31    32   ar
    27     4     7    1
    28    12    13   ar
    29    13    21    1
    30    21    22   am
    31    21    23    2
    32    13    14   ar
    33    18    19   ar
    34    19    20   ar
    35    20    16   ar
    36    14     9   ar
    37     7     1    1
    38    32    27   ar
    39    22    24    1
    40    22    25    1
@<TRIPOS>MOLECULE
*****
 37 40 0 0 0
SMALL
GASTEIGER

@<TRIPOS>ATOM
      1 C         138.1872  141.1571  161.1716 C.3     1  UNL1        0.1874
      2 C         137.9522  140.8475  159.7229 C.3     1  UNL1        0.0668
      3 C         138.5757  141.9417  158.9080 C.3     1  UNL1        0.0973
      4 N         139.1960  142.9276  159.8532 N.am    1  UNL1       -0.2754
      5 C         139.9279  144.1787  159.4671 C.2     1  UNL1        0.2302
      6 O         140.0904  144.5361  158.0194 O.2     1  UNL1       -0.2745
      7 C         138.9559  142.4427  161.2521 C.3     1  UNL1        0.1368
      8 O         137.7331  140.3270  162.3355 O.3     1  UNL1       -0.4757
      9 C         140.2736  140.0667  166.0407 C.ar    1  UNL1        0.0847
     10 C         139.3934  141.2605  165.8172 C.ar    1  UNL1        0.0224
     11 C         138.5466  141.3472  164.5822 C.ar    1  UNL1        0.0402
     12 C         138.5800  140.2402  163.5706 C.ar    1  UNL1        0.1604
     13 C         139.4602  139.0464  163.7940 C.ar    1  UNL1        0.1679
     14 N         140.3070  138.9596  165.0291 N.ar    1  UNL1       -0.2377
     15 C         141.9842  140.6181  171.0057 C.3     1  UNL1        0.1538
     16 N         141.9067  140.2334  169.5579 N.ar    1  UNL1       -0.2473
     17 C         140.7819  140.5550  168.6191 C.ar    1  UNL1        0.0982
     18 C         141.1205  139.9799  167.2757 C.ar    1  UNL1        0.0573
     19 C         142.4546  139.3029  167.3843 C.ar    1  UNL1        0.1231
     20 N         142.9405  139.4595  168.7947 N.ar    1  UNL1       -0.1675
     21 C         139.4937  137.9393  162.7825 C.2     1  UNL1        0.2635
     22 N         138.2510  137.5791  162.0235 N.am    1  UNL1       -0.3240
     23 O         140.7697  137.1925  162.5298 O.2     1  UNL1       -0.2686
     24 H         137.4135  138.0692  162.1893 H       1  UNL1        0.1453
     25 H         138.2730  136.8525  161.3596 H       1  UNL1        0.1453
     26 C         140.4973  145.0724  160.5286 C.3     1  UNL1        0.1116
     27 C         141.5874  144.5688  161.4276 C.ar    1  UNL1       -0.0129
     28 C         142.6677  143.6870  160.8750 C.ar    1  UNL1       -0.0007
     29 C         143.7579  143.1834  161.7740 C.ar    1  UNL1        0.0369
     30 C         143.7675  143.5618  163.2255 C.ar    1  UNL1        0.1468
     31 C         142.6872  144.4435  163.7779 C.ar    1  UNL1        0.0369
     32 C         141.5972  144.9471  162.8790 C.ar    1  UNL1       -0.0007
     33 O         144.8577  143.0582  164.1245 O.3     1  UNL1       -0.4045
     34 C         145.1594  141.5902  164.1878 C.3     1  UNL1        0.5753
     35 F         145.4611  140.1222  164.2511 F       1  UNL1       -0.1328
     36 F         143.9475  141.3782  165.0459 F       1  UNL1       -0.1328
     37 F         146.3713  141.8022  163.3297 F       1  UNL1       -0.1328
@<TRIPOS>BOND
     1    15    16    1
     2    16    17   ar
     3    17    18   ar
     4    18     9    1
     5     9    10   ar
     6    10    11   ar
     7    11    12   ar
     8    12     8    1
     9     1     8    1
    10     1     2    1
    11     2     3    1
    12     3     4    1
    13     4     5   am
    14     5     6    2
    15     5    26    1
    16    26    27    1
    17    27    28   ar
    18    28    29   ar
    19    29    30   ar
    20    30    33    1
    21    33    34    1
    22    34    35    1
    23    34    36    1
    24    34    37    1
    25    30    31   ar
    26    31    32   ar
    27     4     7    1
    28    12    13   ar
    29    13    21    1
    30    21    22   am
    31    21    23    2
    32    13    14   ar
    33    18    19   ar
    34    19    20   ar
    35    20    16   ar
    36    14     9   ar
    37     7     1    1
    38    32    27   ar
    39    22    24    1
    40    22    25    1
@<TRIPOS>MOLECULE
*****
 37 40 0 0 0
SMALL
GASTEIGER

@<TRIPOS>ATOM
      1 C         141.2374  142.7579  160.9189 C.3     1  UNL1        0.1874
      2 C         141.8975  142.5207  159.5931 C.3     1  UNL1        0.0668
      3 C         141.0578  141.5430  158.8255 C.3     1  UNL1        0.0973
      4 N         139.8787  141.1760  159.6770 N.am    1  UNL1       -0.2754
      5 C         138.7813  140.2251  159.3008 C.2     1  UNL1        0.2302
      6 O         138.8043  139.5442  157.9644 O.2     1  UNL1       -0.2745
      7 C         139.9897  141.9268  160.9708 C.3     1  UNL1        0.1368
      8 O         141.7371  143.6666  162.0026 O.3     1  UNL1       -0.4757
      9 C         140.8958  142.6992  166.3161 C.ar    1  UNL1        0.0847
     10 C         142.1171  142.1420  165.6470 C.ar    1  UNL1        0.0224
     11 C         142.3975  142.4644  164.2092 C.ar    1  UNL1        0.0402
     12 C         141.4567  143.3441  163.4405 C.ar    1  UNL1        0.1604
     13 C         140.2353  143.9014  164.1097 C.ar    1  UNL1        0.1679
     14 N         139.9549  143.5789  165.5475 N.ar    1  UNL1       -0.2377
     15 C         140.0350  140.0261  170.7877 C.3     1  UNL1        0.1538
     16 N         140.2197  141.1480  169.8094 N.ar    1  UNL1       -0.2473
     17 C         140.5086  141.0021  168.3447 C.ar    1  UNL1        0.0982
     18 C         140.6153  142.3768  167.7540 C.ar    1  UNL1        0.0573
     19 C         140.3923  143.3723  168.8536 C.ar    1  UNL1        0.1231
     20 N         140.1478  142.6130  170.1238 N.ar    1  UNL1       -0.1675
     21 C         139.2945  144.7811  163.3410 C.2     1  UNL1        0.2635
     22 N         139.8194  145.9773  162.6038 N.am    1  UNL1       -0.3240
     23 O         137.8286  144.4647  163.3096 O.2     1  UNL1       -0.2686
     24 H         140.7816  146.1850  162.6244 H       1  UNL1        0.1453
     25 H         139.2019  146.5547  162.0993 H       1  UNL1        0.1453
     26 C         137.6610  139.9551  160.2608 C.3     1  UNL1        0.1116
     27 C         137.9644  139.5504  161.6729 C.ar    1  UNL1       -0.0129
     28 C         137.6947  140.5023  162.8004 C.ar    1  UNL1       -0.0007
     29 C         137.9982  140.0976  164.2126 C.ar    1  UNL1        0.0369
     30 C         138.5713  138.7410  164.4972 C.ar    1  UNL1        0.1468
     31 C         138.8410  137.7891  163.3698 C.ar    1  UNL1        0.0369
     32 C         138.5375  138.1938  161.9577 C.ar    1  UNL1       -0.0007
     33 O         138.8748  138.3363  165.9094 O.3     1  UNL1       -0.4045
     34 C         137.7580  137.9669  166.8402 C.3     1  UNL1        0.5753
     35 F         136.6413  137.5975  167.7710 F       1  UNL1       -0.1328
     36 F         137.7728  139.3549  167.4087 F       1  UNL1       -0.1328
     37 F         137.7433  136.5789  166.2717 F       1  UNL1       -0.1328
@<TRIPOS>BOND
     1    15    16    1
     2    16    17   ar
     3    17    18   ar
     4    18     9    1
     5     9    10   ar
     6    10    11   ar
     7    11    12   ar
     8    12     8    1
     9     1     8    1
    10     1     2    1
    11     2     3    1
    12     3     4    1
    13     4     5   am
    14     5     6    2
    15     5    26    1
    16    26    27    1
    17    27    28   ar
    18    28    29   ar
    19    29    30   ar
    20    30    33    1
    21    33    34    1
    22    34    35    1
    23    34    36    1
    24    34    37    1
    25    30    31   ar
    26    31    32   ar
    27     4     7    1
    28    12    13   ar
    29    13    21    1
    30    21    22   am
    31    21    23    2
    32    13    14   ar
    33    18    19   ar
    34    19    20   ar
    35    20    16   ar
    36    14     9   ar
    37     7     1    1
    38    32    27   ar
    39    22    24    1
    40    22    25    1
@<TRIPOS>MOLECULE
*****
 37 40 0 0 0
SMALL
GASTEIGER

@<TRIPOS>ATOM
      1 C         139.9612  142.8738  160.4602 C.3     1  UNL1        0.1874
      2 C         139.0510  143.2175  159.3185 C.3     1  UNL1        0.0668
      3 C         138.8557  141.9805  158.4928 C.3     1  UNL1        0.0973
      4 N         139.6453  140.8723  159.1241 N.am    1  UNL1       -0.2754
      5 C         139.7357  139.4600  158.6269 C.2     1  UNL1        0.2302
      6 O         138.9926  139.0515  157.3896 O.2     1  UNL1       -0.2745
      7 C         140.3285  141.4244  160.3400 C.3     1  UNL1        0.1368
      8 O         140.4231  143.8143  161.5335 O.3     1  UNL1       -0.4757
      9 C         140.7803  142.3778  165.7830 C.ar    1  UNL1        0.0847
     10 C         142.0146  142.7014  164.9945 C.ar    1  UNL1        0.0224
     11 C         141.8955  143.1802  163.5780 C.ar    1  UNL1        0.0402
     12 C         140.5421  143.3355  162.9500 C.ar    1  UNL1        0.1604
     13 C         139.3079  143.0119  163.7386 C.ar    1  UNL1        0.1679
     14 N         139.4270  142.5331  165.1551 N.ar    1  UNL1       -0.2377
     15 C         140.6510  142.2235  171.0595 C.3     1  UNL1        0.1538
     16 N         140.8399  141.8281  169.6249 N.ar    1  UNL1       -0.2473
     17 C         140.5767  142.6949  168.4294 C.ar    1  UNL1        0.0982
     18 C         140.8994  141.8990  167.1996 C.ar    1  UNL1        0.0573
     19 C         141.3620  140.5402  167.6351 C.ar    1  UNL1        0.1231
     20 N         141.3253  140.4963  169.1340 N.ar    1  UNL1       -0.1675
     21 C         137.9545  143.1672  163.1107 C.2     1  UNL1        0.2635
     22 N         137.5129  144.5076  162.6024 N.am    1  UNL1       -0.3240
     23 O         137.0428  141.9822  162.9910 O.2     1  UNL1       -0.2686
     24 H         138.1112  145.2854  162.6810 H       1  UNL1        0.1453
     25 H         136.6246  144.6095  162.1903 H       1  UNL1        0.1453
     26 C         140.5691  138.4563  159.3669 C.3     1  UNL1        0.1116
     27 C         140.2899  138.1694  160.8125 C.ar    1  UNL1       -0.0129
     28 C         141.4255  137.9248  161.7615 C.ar    1  UNL1       -0.0007
     29 C         141.1463  137.6379  163.2071 C.ar    1  UNL1        0.0369
     30 C         139.7315  137.5955  163.7036 C.ar    1  UNL1        0.1468
     31 C         138.5960  137.8401  162.7546 C.ar    1  UNL1        0.0369
     32 C         138.8752  138.1270  161.3090 C.ar    1  UNL1       -0.0007
     33 O         139.4523  137.3086  165.1493 O.3     1  UNL1       -0.4045
     34 C         138.4400  138.1271  165.8944 C.3     1  UNL1        0.5753
     35 F         137.4277  138.9457  166.6396 F       1  UNL1       -0.1328
     36 F         137.7556  136.8707  166.3449 F       1  UNL1       -0.1328
     37 F         139.1244  139.3836  165.4440 F       1  UNL1       -0.1328
@<TRIPOS>BOND
     1    15    16    1
     2    16    17   ar
     3    17    18   ar
     4    18     9    1
     5     9    10   ar
     6    10    11   ar
     7    11    12   ar
     8    12     8    1
     9     1     8    1
    10     1     2    1
    11     2     3    1
    12     3     4    1
    13     4     5   am
    14     5     6    2
    15     5    26    1
    16    26    27    1
    17    27    28   ar
    18    28    29   ar
    19    29    30   ar
    20    30    33    1
    21    33    34    1
    22    34    35    1
    23    34    36    1
    24    34    37    1
    25    30    31   ar
    26    31    32   ar
    27     4     7    1
    28    12    13   ar
    29    13    21    1
    30    21    22   am
    31    21    23    2
    32    13    14   ar
    33    18    19   ar
    34    19    20   ar
    35    20    16   ar
    36    14     9   ar
    37     7     1    1
    38    32    27   ar
    39    22    24    1
    40    22    25    1
@<TRIPOS>MOLECULE
*****
 37 40 0 0 0
SMALL
GASTEIGER

@<TRIPOS>ATOM
      1 C         138.3802  139.6004  162.5644 C.3     1  UNL1        0.1874
      2 C         137.6758  139.4487  161.2489 C.3     1  UNL1        0.0668
      3 C         138.6798  138.9831  160.2364 C.3     1  UNL1        0.0973
      4 N         140.0048  138.8468  160.9263 N.am    1  UNL1       -0.2754
      5 C         141.2894  138.4065  160.2892 C.2     1  UNL1        0.2302
      6 O         141.3216  138.0550  158.8313 O.2     1  UNL1       -0.2745
      7 C         139.8196  139.2284  162.3650 C.3     1  UNL1        0.1368
      8 O         137.7550  140.0457  163.8531 O.3     1  UNL1       -0.4757
      9 C         140.3345  141.6787  167.1591 C.ar    1  UNL1        0.0847
     10 C         140.0724  142.5047  165.9348 C.ar    1  UNL1        0.0224
     11 C         139.2126  141.9604  164.8328 C.ar    1  UNL1        0.0402
     12 C         138.6149  140.5900  164.9552 C.ar    1  UNL1        0.1604
     13 C         138.8770  139.7640  166.1794 C.ar    1  UNL1        0.1679
     14 N         139.7369  140.3083  167.2814 N.ar    1  UNL1       -0.2377
     15 C         144.5154  142.7654  170.1957 C.3     1  UNL1        0.1538
     16 N         143.1162  142.7224  169.6569 N.ar    1  UNL1       -0.2473
     17 C         142.6682  141.9959  168.4234 C.ar    1  UNL1        0.0982
     18 C         141.1944  142.2230  168.2611 C.ar    1  UNL1        0.0573
     19 C         140.7314  143.0898  169.3944 C.ar    1  UNL1        0.1231
     20 N         141.9191  143.3985  170.2570 N.ar    1  UNL1       -0.1675
     21 C         138.2794  138.3937  166.3018 C.2     1  UNL1        0.2635
     22 N         137.2962  138.0992  167.3957 N.am    1  UNL1       -0.3240
     23 O         138.6648  137.3179  165.3302 O.2     1  UNL1       -0.2686
     24 H         137.0432  138.8053  168.0334 H       1  UNL1        0.1453
     25 H         136.9039  137.1998  167.4759 H       1  UNL1        0.1453
     26 C         142.5417  138.3176  161.1099 C.3     1  UNL1        0.1116
     27 C         143.1032  139.5487  161.7572 C.ar    1  UNL1       -0.0129
     28 C         143.7720  139.4533  163.0964 C.ar    1  UNL1       -0.0007
     29 C         144.3335  140.6844  163.7438 C.ar    1  UNL1        0.0369
     30 C         144.2263  142.0109  163.0517 C.ar    1  UNL1        0.1468
     31 C         143.5576  142.1063  161.7125 C.ar    1  UNL1        0.0369
     32 C         142.9960  140.8751  161.0652 C.ar    1  UNL1       -0.0007
     33 O         144.7878  143.2421  163.6991 O.3     1  UNL1       -0.4045
     34 C         143.8856  144.3943  164.0284 C.3     1  UNL1        0.5753
     35 F         142.9834  145.5465  164.3577 F       1  UNL1       -0.1328
     36 F         143.3712  143.6496  165.2245 F       1  UNL1       -0.1328
     37 F         144.4000  145.1390  162.8322 F       1  UNL1       -0.1328
@<TRIPOS>BOND
     1    15    16    1
     2    16    17   ar
     3    17    18   ar
     4    18     9    1
     5     9    10   ar
     6    10    11   ar
     7    11    12   ar
     8    12     8    1
     9     1     8    1
    10     1     2    1
    11     2     3    1
    12     3     4    1
    13     4     5   am
    14     5     6    2
    15     5    26    1
    16    26    27    1
    17    27    28   ar
    18    28    29   ar
    19    29    30   ar
    20    30    33    1
    21    33    34    1
    22    34    35    1
    23    34    36    1
    24    34    37    1
    25    30    31   ar
    26    31    32   ar
    27     4     7    1
    28    12    13   ar
    29    13    21    1
    30    21    22   am
    31    21    23    2
    32    13    14   ar
    33    18    19   ar
    34    19    20   ar
    35    20    16   ar
    36    14     9   ar
    37     7     1    1
    38    32    27   ar
    39    22    24    1
    40    22    25    1
@<TRIPOS>MOLECULE
*****
 37 40 0 0 0
SMALL
GASTEIGER

@<TRIPOS>ATOM
      1 C         142.0743  141.9779  160.6762 C.3     1  UNL1        0.1874
      2 C         142.5798  141.4942  159.3494 C.3     1  UNL1        0.0668
      3 C         141.4827  140.7093  158.6935 C.3     1  UNL1        0.0973
      4 N         140.2990  140.7080  159.6149 N.am    1  UNL1       -0.2754
      5 C         138.9811  140.0400  159.3563 C.2     1  UNL1        0.2302
      6 O         138.7600  139.2870  158.0780 O.2     1  UNL1       -0.2745
      7 C         140.6647  141.4920  160.8403 C.3     1  UNL1        0.1368
      8 O         142.8434  142.8027  161.6652 O.3     1  UNL1       -0.4757
      9 C         142.3882  142.0310  166.0751 C.ar    1  UNL1        0.0847
     10 C         141.4118  142.9209  165.3647 C.ar    1  UNL1        0.0224
     11 C         141.5635  143.1781  163.8948 C.ar    1  UNL1        0.0402
     12 C         142.6917  142.5454  163.1352 C.ar    1  UNL1        0.1604
     13 C         143.6681  141.6556  163.8456 C.ar    1  UNL1        0.1679
     14 N         143.5164  141.3984  165.3155 N.ar    1  UNL1       -0.2377
     15 C         140.5370  140.2908  170.7039 C.3     1  UNL1        0.1538
     16 N         141.3856  140.9738  169.6727 N.ar    1  UNL1       -0.2473
     17 C         141.1483  140.9688  168.1916 C.ar    1  UNL1        0.0982
     18 C         142.2365  141.7738  167.5451 C.ar    1  UNL1        0.0573
     19 C         143.1463  142.2762  168.6266 C.ar    1  UNL1        0.1231
     20 N         142.6205  141.7819  169.9416 N.ar    1  UNL1       -0.1675
     21 C         144.7963  141.0229  163.0860 C.2     1  UNL1        0.2635
     22 N         144.5849  139.7174  162.3783 N.am    1  UNL1       -0.3240
     23 O         146.1358  141.6958  163.0340 O.2     1  UNL1       -0.2686
     24 H         143.7057  139.2757  162.4124 H       1  UNL1        0.1453
     25 H         145.3253  139.3022  161.8798 H       1  UNL1        0.1453
     26 C         137.8844  140.1249  160.3760 C.3     1  UNL1        0.1116
     27 C         138.1295  139.6617  161.7815 C.ar    1  UNL1       -0.0129
     28 C         137.8481  140.5801  162.9336 C.ar    1  UNL1       -0.0007
     29 C         138.0933  140.1170  164.3392 C.ar    1  UNL1        0.0369
     30 C         138.6198  138.7354  164.5925 C.ar    1  UNL1        0.1468
     31 C         138.9011  137.8171  163.4404 C.ar    1  UNL1        0.0369
     32 C         138.6560  138.2803  162.0349 C.ar    1  UNL1       -0.0007
     33 O         138.8649  138.2723  165.9980 O.3     1  UNL1       -0.4045
     34 C         137.7062  137.9492  166.8941 C.3     1  UNL1        0.5753
     35 F         136.5474  137.6260  167.7901 F       1  UNL1       -0.1328
     36 F         137.8105  139.3087  167.5193 F       1  UNL1       -0.1328
     37 F         137.6018  136.5897  166.2689 F       1  UNL1       -0.1328
@<TRIPOS>BOND
     1    15    16    1
     2    16    17   ar
     3    17    18   ar
     4    18     9    1
     5     9    10   ar
     6    10    11   ar
     7    11    12   ar
     8    12     8    1
     9     1     8    1
    10     1     2    1
    11     2     3    1
    12     3     4    1
    13     4     5   am
    14     5     6    2
    15     5    26    1
    16    26    27    1
    17    27    28   ar
    18    28    29   ar
    19    29    30   ar
    20    30    33    1
    21    33    34    1
    22    34    35    1
    23    34    36    1
    24    34    37    1
    25    30    31   ar
    26    31    32   ar
    27     4     7    1
    28    12    13   ar
    29    13    21    1
    30    21    22   am
    31    21    23    2
    32    13    14   ar
    33    18    19   ar
    34    19    20   ar
    35    20    16   ar
    36    14     9   ar
    37     7     1    1
    38    32    27   ar
    39    22    24    1
    40    22    25    1
@<TRIPOS>MOLECULE
*****
 37 40 0 0 0
SMALL
GASTEIGER

@<TRIPOS>ATOM
      1 C         138.9042  138.4141  165.2731 C.3     1  UNL1        0.1874
      2 C         137.9367  138.3081  166.4145 C.3     1  UNL1        0.0668
      3 C         138.3714  139.2687  167.4814 C.3     1  UNL1        0.0973
      4 N         139.6077  139.9685  166.9994 N.am    1  UNL1       -0.2754
      5 C         140.3791  141.0129  167.7504 C.2     1  UNL1        0.2302
      6 O         139.9269  141.4433  169.1143 O.2     1  UNL1       -0.2745
      7 C         139.9369  139.4403  165.6347 C.3     1  UNL1        0.1368
      8 O         138.8488  137.6315  163.9948 O.3     1  UNL1       -0.4757
      9 C         141.5532  138.7245  160.5682 C.ar    1  UNL1        0.0847
     10 C         142.0059  137.7259  161.5919 C.ar    1  UNL1        0.0224
     11 C         141.1044  137.3616  162.7340 C.ar    1  UNL1        0.0402
     12 C         139.7503  137.9959  162.8525 C.ar    1  UNL1        0.1604
     13 C         139.2976  138.9944  161.8289 C.ar    1  UNL1        0.1679
     14 N         140.1991  139.3588  160.6868 N.ar    1  UNL1       -0.2377
     15 C         143.6333  139.0784  155.7279 C.3     1  UNL1        0.1538
     16 N         143.4108  139.2515  157.2011 N.ar    1  UNL1       -0.2473
     17 C         142.2871  138.6590  157.9987 C.ar    1  UNL1        0.0982
     18 C         142.4547  139.0889  159.4260 C.ar    1  UNL1        0.0573
     19 C         143.6820  139.9471  159.5105 C.ar    1  UNL1        0.1231
     20 N         144.2729  140.0476  158.1355 N.ar    1  UNL1       -0.1675
     21 C         137.9435  139.6287  161.9474 C.2     1  UNL1        0.2635
     22 N         136.8614  139.2746  160.9709 N.am    1  UNL1       -0.3240
     23 O         137.6715  140.6171  163.0424 O.2     1  UNL1       -0.2686
     24 H         137.0399  138.6259  160.2522 H       1  UNL1        0.1453
     25 H         135.9726  139.6909  161.0487 H       1  UNL1        0.1453
     26 C         141.6027  141.6270  167.1375 C.3     1  UNL1        0.1116
     27 C         141.4634  142.6610  166.0598 C.ar    1  UNL1       -0.0129
     28 C         142.6535  143.0470  165.2325 C.ar    1  UNL1       -0.0007
     29 C         142.5143  144.0811  164.1548 C.ar    1  UNL1        0.0369
     30 C         141.1848  144.7290  163.9045 C.ar    1  UNL1        0.1468
     31 C         139.9947  144.3430  164.7318 C.ar    1  UNL1        0.0369
     32 C         140.1340  143.3089  165.8095 C.ar    1  UNL1       -0.0007
     33 O         141.0455  145.7631  162.8268 O.3     1  UNL1       -0.4045
     34 C         140.4205  145.3978  161.5131 C.3     1  UNL1        0.5753
     35 F         139.7954  145.0324  160.1994 F       1  UNL1       -0.1328
     36 F         139.1109  145.9613  161.9794 F       1  UNL1       -0.1328
     37 F         141.7300  144.8342  161.0468 F       1  UNL1       -0.1328
@<TRIPOS>BOND
     1    15    16    1
     2    16    17   ar
     3    17    18   ar
     4    18     9    1
     5     9    10   ar
     6    10    11   ar
     7    11    12   ar
     8    12     8    1
     9     1     8    1
    10     1     2    1
    11     2     3    1
    12     3     4    1
    13     4     5   am
    14     5     6    2
    15     5    26    1
    16    26    27    1
    17    27    28   ar
    18    28    29   ar
    19    29    30   ar
    20    30    33    1
    21    33    34    1
    22    34    35    1
    23    34    36    1
    24    34    37    1
    25    30    31   ar
    26    31    32   ar
    27     4     7    1
    28    12    13   ar
    29    13    21    1
    30    21    22   am
    31    21    23    2
    32    13    14   ar
    33    18    19   ar
    34    19    20   ar
    35    20    16   ar
    36    14     9   ar
    37     7     1    1
    38    32    27   ar
    39    22    24    1
    40    22    25    1
@<TRIPOS>MOLECULE
*****
 37 40 0 0 0
SMALL
GASTEIGER

@<TRIPOS>ATOM
      1 C         140.2420  142.9959  160.8234 C.3     1  UNL1        0.1874
      2 C         139.3086  143.3778  159.7130 C.3     1  UNL1        0.0668
      3 C         139.0125  142.1450  158.9116 C.3     1  UNL1        0.0973
      4 N         139.7629  141.0009  159.5267 N.am    1  UNL1       -0.2754
      5 C         139.7548  139.5805  159.0448 C.2     1  UNL1        0.2302
      6 O         138.9425  139.2010  157.8423 O.2     1  UNL1       -0.2745
      7 C         140.5227  141.5269  160.7082 C.3     1  UNL1        0.1368
      8 O         140.7971  143.9205  161.8659 O.3     1  UNL1       -0.4757
      9 C         141.3957  142.4600  166.0800 C.ar    1  UNL1        0.0847
     10 C         140.0145  142.5277  165.4988 C.ar    1  UNL1        0.0224
     11 C         139.8150  143.0145  164.0941 C.ar    1  UNL1        0.0402
     12 C         140.9967  143.4337  163.2706 C.ar    1  UNL1        0.1604
     13 C         142.3778  143.3659  163.8518 C.ar    1  UNL1        0.1679
     14 N         142.5773  142.8791  165.2565 N.ar    1  UNL1       -0.2377
     15 C         140.7982  141.7345  171.2759 C.3     1  UNL1        0.1538
     16 N         141.3206  141.6397  169.8730 N.ar    1  UNL1       -0.2473
     17 C         140.7713  142.3595  168.6772 C.ar    1  UNL1        0.0982
     18 C         141.5952  141.9731  167.4847 C.ar    1  UNL1        0.0573
     19 C         142.6537  141.0144  167.9436 C.ar    1  UNL1        0.1231
     20 N         142.4839  140.8083  169.4196 N.ar    1  UNL1       -0.1675
     21 C         143.5594  143.7850  163.0284 C.2     1  UNL1        0.2635
     22 N         143.5434  145.1012  162.3090 N.am    1  UNL1       -0.3240
     23 O         144.7571  142.8880  162.9242 O.2     1  UNL1       -0.2686
     24 H         142.7573  145.6899  162.3773 H       1  UNL1        0.1453
     25 H         144.3189  145.3762  161.7686 H       1  UNL1        0.1453
     26 C         140.5591  138.5394  159.7654 C.3     1  UNL1        0.1116
     27 C         140.2463  138.2061  161.1941 C.ar    1  UNL1       -0.0129
     28 C         141.3547  137.8580  162.1429 C.ar    1  UNL1       -0.0007
     29 C         141.0419  137.5246  163.5717 C.ar    1  UNL1        0.0369
     30 C         139.6207  137.5394  164.0513 C.ar    1  UNL1        0.1468
     31 C         138.5125  137.8875  163.1025 C.ar    1  UNL1        0.0369
     32 C         138.8252  138.2209  161.6738 C.ar    1  UNL1       -0.0007
     33 O         139.3080  137.2060  165.4801 O.3     1  UNL1       -0.4045
     34 C         138.3114  138.0289  166.2414 C.3     1  UNL1        0.5753
     35 F         137.3147  138.8518  167.0027 F       1  UNL1       -0.1328
     36 F         137.5151  136.7922  166.5357 F       1  UNL1       -0.1328
     37 F         139.1076  139.2656  165.9470 F       1  UNL1       -0.1328
@<TRIPOS>BOND
     1    15    16    1
     2    16    17   ar
     3    17    18   ar
     4    18     9    1
     5     9    10   ar
     6    10    11   ar
     7    11    12   ar
     8    12     8    1
     9     1     8    1
    10     1     2    1
    11     2     3    1
    12     3     4    1
    13     4     5   am
    14     5     6    2
    15     5    26    1
    16    26    27    1
    17    27    28   ar
    18    28    29   ar
    19    29    30   ar
    20    30    33    1
    21    33    34    1
    22    34    35    1
    23    34    36    1
    24    34    37    1
    25    30    31   ar
    26    31    32   ar
    27     4     7    1
    28    12    13   ar
    29    13    21    1
    30    21    22   am
    31    21    23    2
    32    13    14   ar
    33    18    19   ar
    34    19    20   ar
    35    20    16   ar
    36    14     9   ar
    37     7     1    1
    38    32    27   ar
    39    22    24    1
    40    22    25    1
