@<TRIPOS>MOLECULE
*****
 36 39 0 0 0
SMALL
GASTEIGER

@<TRIPOS>ATOM
      1 C         139.6540  139.0819  164.7343 C.ar    1  UNL1        0.0291
      2 C         140.1817  140.1956  165.5893 C.ar    1  UNL1        0.0050
      3 C         139.7192  140.3345  167.0094 C.ar    1  UNL1        0.0311
      4 C         140.2469  141.4483  167.8645 C.ar    1  UNL1        0.0522
      5 C         139.7844  141.5873  169.2846 C.ar    1  UNL1        0.0853
      6 C         138.7942  140.6125  169.8497 C.ar    1  UNL1        0.1045
      7 N         138.2665  139.4988  168.9947 N.ar    1  UNL1       -0.2435
      8 C         138.7290  139.3598  167.5745 C.ar    1  UNL1        0.0847
      9 C         138.2013  138.2460  166.7195 C.ar    1  UNL1        0.0488
     10 C         138.6638  138.1071  165.2994 C.ar    1  UNL1        0.1416
     11 F         138.1360  136.9933  164.4443 F       1  UNL1       -0.2041
     12 C         141.0414  138.6648  160.4738 C.ar    1  UNL1        0.0888
     13 C         140.1896  139.8327  160.8742 C.ar    1  UNL1        0.0173
     14 C         139.7271  139.9717  162.2944 C.ar    1  UNL1        0.0029
     15 C         140.1165  138.9429  163.3141 C.ar    1  UNL1        0.0213
     16 C         140.9683  137.7749  162.9137 C.ar    1  UNL1        0.0986
     17 N         141.4308  137.6359  161.4936 N.ar    1  UNL1       -0.2457
     18 C         141.5039  138.5258  159.0537 C.3     1  UNL1        0.1876
     19 C         143.7294  139.7325  159.6378 C.3     1  UNL1        0.1747
     20 O         142.8923  138.9465  158.6726 O.3     1  UNL1       -0.3447
     21 C         140.3121  142.7010  170.1397 C.2     1  UNL1        0.2455
     22 N         141.0208  142.3890  171.4244 N.am    1  UNL1       -0.3252
     23 O         140.1311  144.1267  169.7101 O.2     1  UNL1       -0.2703
     24 H         141.1396  141.4533  171.7063 H       1  UNL1        0.1453
     25 H         141.3671  143.1200  171.9856 H       1  UNL1        0.1453
     26 N         141.2371  142.4231  167.2994 N.pl3   1  UNL1       -0.3292
     27 H         140.9246  143.2689  166.9042 H       1  UNL1        0.1471
     28 C         142.7034  142.1091  167.3364 C.3     1  UNL1        0.1114
     29 C         143.4784  142.2949  168.6072 C.3     1  UNL1        0.0278
     30 C         143.3948  141.6092  166.1026 C.ar    1  UNL1        0.0938
     31 N         143.9749  142.4594  165.0113 N.ar    1  UNL1       -0.1723
     32 N         144.5660  141.5470  163.9778 N.ar    1  UNL1       -0.2480
     33 C         145.2515  141.9737  162.7137 C.3     1  UNL1        0.1537
     34 C         144.3512  140.1331  164.4303 C.ar    1  UNL1        0.0921
     35 C         143.6274  140.1716  165.7435 C.ar    1  UNL1        0.0137
     36 C         143.2095  138.9813  166.5551 C.3     1  UNL1        0.0340
@<TRIPOS>BOND
     1    19    20    1
     2    20    18    1
     3    18    12    1
     4    12    13   ar
     5    13    14   ar
     6    14    15   ar
     7    15     1    1
     8     1     2   ar
     9     2     3   ar
    10     3     4   ar
    11     4    26    1
    12    26    28    1
    13    28    29    1
    14    28    30    1
    15    30    31   ar
    16    31    32   ar
    17    32    33    1
    18    32    34   ar
    19    34    35   ar
    20    35    36    1
    21     4     5   ar
    22     5    21    1
    23    21    22   am
    24    21    23    2
    25     5     6   ar
    26     6     7   ar
    27     7     8   ar
    28     8     9   ar
    29     9    10   ar
    30    10    11    1
    31    15    16   ar
    32    16    17   ar
    33    17    12   ar
    34    10     1   ar
    35     8     3   ar
    36    35    30   ar
    37    26    27    1
    38    22    24    1
    39    22    25    1
@<TRIPOS>MOLECULE
*****
 36 39 0 0 0
SMALL
GASTEIGER

@<TRIPOS>ATOM
      1 C         140.1633  140.7563  166.0489 C.ar    1  UNL1        0.0291
      2 C         140.7280  141.9409  165.3224 C.ar    1  UNL1        0.0050
      3 C         139.9653  142.5582  164.1878 C.ar    1  UNL1        0.0311
      4 C         140.5300  143.7429  163.4612 C.ar    1  UNL1        0.0522
      5 C         139.7673  144.3602  162.3267 C.ar    1  UNL1        0.0853
      6 C         138.4401  143.7929  161.9186 C.ar    1  UNL1        0.1045
      7 N         137.8754  142.6083  162.6451 N.ar    1  UNL1       -0.2435
      8 C         138.6381  141.9909  163.7798 C.ar    1  UNL1        0.0847
      9 C         138.0734  140.8064  164.5063 C.ar    1  UNL1        0.0488
     10 C         138.8360  140.1890  165.6408 C.ar    1  UNL1        0.1416
     11 F         138.2714  139.0044  166.3674 F       1  UNL1       -0.2041
     12 C         142.4513  138.9042  169.4527 C.ar    1  UNL1        0.0888
     13 C         141.1371  139.5794  169.7118 C.ar    1  UNL1        0.0173
     14 C         140.3744  140.1967  168.5772 C.ar    1  UNL1        0.0029
     15 C         140.9260  140.1390  167.1835 C.ar    1  UNL1        0.0213
     16 C         142.2401  139.4638  166.9244 C.ar    1  UNL1        0.0986
     17 N         143.0028  138.8465  168.0589 N.ar    1  UNL1       -0.2457
     18 C         143.2139  138.2869  170.5872 C.3     1  UNL1        0.1876
     19 C         144.3104  136.1382  171.5521 C.3     1  UNL1        0.1747
     20 O         143.9622  137.0039  170.3776 O.3     1  UNL1       -0.3447
     21 C         140.3320  145.5448  161.6001 C.2     1  UNL1        0.2455
     22 N         141.4700  145.3631  160.6399 N.am    1  UNL1       -0.3252
     23 O         139.7586  146.9110  161.8336 O.2     1  UNL1       -0.2703
     24 H         141.8464  144.4664  160.4867 H       1  UNL1        0.1453
     25 H         141.8406  146.1406  160.1631 H       1  UNL1        0.1453
     26 N         141.8573  144.3101  163.8692 N.pl3   1  UNL1       -0.3292
     27 H         141.9032  145.1935  164.3014 H       1  UNL1        0.1471
     28 C         143.1147  143.5315  163.6188 C.3     1  UNL1        0.1114
     29 C         144.1615  143.4329  164.6885 C.3     1  UNL1        0.0278
     30 C         143.3252  142.8514  162.2985 C.ar    1  UNL1        0.0938
     31 N         143.6875  143.5245  161.0078 N.ar    1  UNL1       -0.1723
     32 N         143.7966  142.4678  159.9487 N.ar    1  UNL1       -0.2480
     33 C         144.1403  142.6971  158.5067 C.3     1  UNL1        0.1537
     34 C         143.5017  141.1418  160.5848 C.ar    1  UNL1        0.0921
     35 C         143.2104  141.3788  162.0370 C.ar    1  UNL1        0.0137
     36 C         142.8648  140.3278  163.0499 C.3     1  UNL1        0.0340
@<TRIPOS>BOND
     1    19    20    1
     2    20    18    1
     3    18    12    1
     4    12    13   ar
     5    13    14   ar
     6    14    15   ar
     7    15     1    1
     8     1     2   ar
     9     2     3   ar
    10     3     4   ar
    11     4    26    1
    12    26    28    1
    13    28    29    1
    14    28    30    1
    15    30    31   ar
    16    31    32   ar
    17    32    33    1
    18    32    34   ar
    19    34    35   ar
    20    35    36    1
    21     4     5   ar
    22     5    21    1
    23    21    22   am
    24    21    23    2
    25     5     6   ar
    26     6     7   ar
    27     7     8   ar
    28     8     9   ar
    29     9    10   ar
    30    10    11    1
    31    15    16   ar
    32    16    17   ar
    33    17    12   ar
    34    10     1   ar
    35     8     3   ar
    36    35    30   ar
    37    26    27    1
    38    22    24    1
    39    22    25    1
@<TRIPOS>MOLECULE
*****
 36 39 0 0 0
SMALL
GASTEIGER

@<TRIPOS>ATOM
      1 C         139.8894  139.1516  165.1022 C.ar    1  UNL1        0.0291
      2 C         140.5604  139.9993  164.0624 C.ar    1  UNL1        0.0050
      3 C         140.3946  139.6731  162.6077 C.ar    1  UNL1        0.0311
      4 C         141.0655  140.5208  161.5678 C.ar    1  UNL1        0.0522
      5 C         140.8998  140.1946  160.1131 C.ar    1  UNL1        0.0853
      6 C         140.0630  139.0208  159.6983 C.ar    1  UNL1        0.1045
      7 N         139.3921  138.1731  160.7381 N.ar    1  UNL1       -0.2435
      8 C         139.5579  138.4993  162.1929 C.ar    1  UNL1        0.0847
      9 C         138.8869  137.6517  163.2327 C.ar    1  UNL1        0.0488
     10 C         139.0527  137.9778  164.6874 C.ar    1  UNL1        0.1416
     11 F         138.3818  137.1302  165.7273 F       1  UNL1       -0.2041
     12 C         140.3867  140.1301  169.4664 C.ar    1  UNL1        0.0888
     13 C         141.5844  140.0973  168.5639 C.ar    1  UNL1        0.0173
     14 C         141.4186  139.7711  167.1092 C.ar    1  UNL1        0.0029
     15 C         140.0552  139.4778  166.5569 C.ar    1  UNL1        0.0213
     16 C         138.8575  139.5106  167.4594 C.ar    1  UNL1        0.0986
     17 N         139.0232  139.8367  168.9141 N.ar    1  UNL1       -0.2457
     18 C         140.5524  140.4562  170.9210 C.3     1  UNL1        0.1876
     19 C         139.9454  142.9371  170.4448 C.3     1  UNL1        0.1747
     20 O         140.4176  141.8740  171.3919 O.3     1  UNL1       -0.3447
     21 C         141.5707  141.0423  159.0732 C.2     1  UNL1        0.2455
     22 N         140.7569  141.6815  157.9873 N.am    1  UNL1       -0.3252
     23 O         143.0554  141.2507  159.1191 O.2     1  UNL1       -0.2703
     24 H         139.7824  141.5447  157.9572 H       1  UNL1        0.1453
     25 H         141.1972  142.2378  157.3048 H       1  UNL1        0.1453
     26 N         141.9023  141.6946  161.9826 N.pl3   1  UNL1       -0.3292
     27 H         142.8151  141.5527  162.3228 H       1  UNL1        0.1471
     28 C         141.3480  143.0846  161.8790 C.3     1  UNL1        0.1114
     29 C         141.9749  144.0741  160.9421 C.3     1  UNL1        0.0278
     30 C         140.1670  143.4851  162.7125 C.ar    1  UNL1        0.0938
     31 N         140.2203  144.1763  164.0428 N.ar    1  UNL1       -0.1723
     32 N         138.8115  144.3831  164.5145 N.ar    1  UNL1       -0.2480
     33 C         138.3992  145.0382  165.7993 C.3     1  UNL1        0.1537
     34 C         137.8875  143.8198  163.4758 C.ar    1  UNL1        0.0921
     35 C         138.7252  143.2649  162.3622 C.ar    1  UNL1        0.0137
     36 C         138.2113  142.6054  161.1167 C.3     1  UNL1        0.0340
@<TRIPOS>BOND
     1    19    20    1
     2    20    18    1
     3    18    12    1
     4    12    13   ar
     5    13    14   ar
     6    14    15   ar
     7    15     1    1
     8     1     2   ar
     9     2     3   ar
    10     3     4   ar
    11     4    26    1
    12    26    28    1
    13    28    29    1
    14    28    30    1
    15    30    31   ar
    16    31    32   ar
    17    32    33    1
    18    32    34   ar
    19    34    35   ar
    20    35    36    1
    21     4     5   ar
    22     5    21    1
    23    21    22   am
    24    21    23    2
    25     5     6   ar
    26     6     7   ar
    27     7     8   ar
    28     8     9   ar
    29     9    10   ar
    30    10    11    1
    31    15    16   ar
    32    16    17   ar
    33    17    12   ar
    34    10     1   ar
    35     8     3   ar
    36    35    30   ar
    37    26    27    1
    38    22    24    1
    39    22    25    1
@<TRIPOS>MOLECULE
*****
 36 39 0 0 0
SMALL
GASTEIGER

@<TRIPOS>ATOM
      1 C         143.0533  141.7729  165.0034 C.ar    1  UNL1        0.0291
      2 C         142.0497  142.7201  164.4157 C.ar    1  UNL1        0.0050
      3 C         142.1357  143.1001  162.9672 C.ar    1  UNL1        0.0311
      4 C         141.1320  144.0474  162.3794 C.ar    1  UNL1        0.0522
      5 C         141.2180  144.4274  160.9309 C.ar    1  UNL1        0.0853
      6 C         142.3076  143.8601  160.0701 C.ar    1  UNL1        0.1045
      7 N         143.3112  142.9129  160.6578 N.ar    1  UNL1       -0.2435
      8 C         143.2253  142.5328  162.1064 C.ar    1  UNL1        0.0847
      9 C         144.2289  141.5856  162.6941 C.ar    1  UNL1        0.0488
     10 C         144.1429  141.2056  164.1426 C.ar    1  UNL1        0.1416
     11 F         145.1466  140.2583  164.7303 F       1  UNL1       -0.2041
     12 C         142.7955  140.6329  169.3490 C.ar    1  UNL1        0.0888
     13 C         142.4212  139.6392  168.2895 C.ar    1  UNL1        0.0173
     14 C         142.5071  140.0193  166.8409 C.ar    1  UNL1        0.0029
     15 C         142.9674  141.3929  166.4520 C.ar    1  UNL1        0.0213
     16 C         143.3418  142.3865  167.5115 C.ar    1  UNL1        0.0986
     17 N         143.2558  142.0065  168.9600 N.ar    1  UNL1       -0.2457
     18 C         142.7096  140.2529  170.7975 C.3     1  UNL1        0.1876
     19 C         140.6527  141.8094  171.1086 C.3     1  UNL1        0.1747
     20 O         141.7256  140.9412  171.6963 O.3     1  UNL1       -0.3447
     21 C         140.2144  145.3747  160.3432 C.2     1  UNL1        0.2455
     22 N         139.8179  145.2481  158.9021 N.am    1  UNL1       -0.3252
     23 O         139.6072  146.4485  161.1965 O.2     1  UNL1       -0.2703
     24 H         140.2164  144.5433  158.3420 H       1  UNL1        0.1453
     25 H         139.1592  145.8698  158.5163 H       1  UNL1        0.1453
     26 N         140.0424  144.6147  163.2402 N.pl3   1  UNL1       -0.3292
     27 H         140.1265  145.5256  163.6041 H       1  UNL1        0.1471
     28 C         138.8248  143.7940  163.5467 C.3     1  UNL1        0.1114
     29 C         137.8422  144.2658  164.5771 C.3     1  UNL1        0.0278
     30 C         138.5897  142.5015  162.8225 C.ar    1  UNL1        0.0938
     31 N         138.2338  142.3553  161.3726 N.ar    1  UNL1       -0.1723
     32 N         138.0935  140.8918  161.0752 N.ar    1  UNL1       -0.2480
     33 C         137.7452  140.2919  159.7453 C.3     1  UNL1        0.1537
     34 C         138.3626  140.1335  162.3412 C.ar    1  UNL1        0.0921
     35 C         138.6693  141.1284  163.4211 C.ar    1  UNL1        0.0137
     36 C         138.9978  140.8067  164.8488 C.3     1  UNL1        0.0340
@<TRIPOS>BOND
     1    19    20    1
     2    20    18    1
     3    18    12    1
     4    12    13   ar
     5    13    14   ar
     6    14    15   ar
     7    15     1    1
     8     1     2   ar
     9     2     3   ar
    10     3     4   ar
    11     4    26    1
    12    26    28    1
    13    28    29    1
    14    28    30    1
    15    30    31   ar
    16    31    32   ar
    17    32    33    1
    18    32    34   ar
    19    34    35   ar
    20    35    36    1
    21     4     5   ar
    22     5    21    1
    23    21    22   am
    24    21    23    2
    25     5     6   ar
    26     6     7   ar
    27     7     8   ar
    28     8     9   ar
    29     9    10   ar
    30    10    11    1
    31    15    16   ar
    32    16    17   ar
    33    17    12   ar
    34    10     1   ar
    35     8     3   ar
    36    35    30   ar
    37    26    27    1
    38    22    24    1
    39    22    25    1
@<TRIPOS>MOLECULE
*****
 36 39 0 0 0
SMALL
GASTEIGER

@<TRIPOS>ATOM
      1 C         140.1979  139.0817  165.4592 C.ar    1  UNL1        0.0291
      2 C         141.1205  139.6216  164.4070 C.ar    1  UNL1        0.0050
      3 C         140.9512  139.2054  162.9759 C.ar    1  UNL1        0.0311
      4 C         141.8739  139.7453  161.9236 C.ar    1  UNL1        0.0522
      5 C         141.7046  139.3290  160.4925 C.ar    1  UNL1        0.0853
      6 C         140.6127  138.3729  160.1137 C.ar    1  UNL1        0.1045
      7 N         139.6900  137.8330  161.1659 N.ar    1  UNL1       -0.2435
      8 C         139.8593  138.2492  162.5971 C.ar    1  UNL1        0.0847
      9 C         138.9367  137.7093  163.6493 C.ar    1  UNL1        0.0488
     10 C         139.1060  138.1256  165.0804 C.ar    1  UNL1        0.1416
     11 F         138.1833  137.5856  166.1327 F       1  UNL1       -0.2041
     12 C         140.7057  140.3303  169.7527 C.ar    1  UNL1        0.0888
     13 C         141.9080  140.1767  168.8691 C.ar    1  UNL1        0.0173
     14 C         141.7388  139.7605  167.4379 C.ar    1  UNL1        0.0029
     15 C         140.3672  139.4979  166.8904 C.ar    1  UNL1        0.0213
     16 C         139.1648  139.6515  167.7740 C.ar    1  UNL1        0.0986
     17 N         139.3341  140.0676  169.2051 N.ar    1  UNL1       -0.2457
     18 C         140.8749  140.7465  171.1838 C.3     1  UNL1        0.1876
     19 C         139.9696  143.1163  170.6230 C.3     1  UNL1        0.1747
     20 O         140.3929  142.0933  171.6352 O.3     1  UNL1       -0.3447
     21 C         142.6272  139.8690  159.4402 C.2     1  UNL1        0.2455
     22 N         142.0878  140.7418  158.3460 N.am    1  UNL1       -0.3252
     23 O         144.0892  139.5360  159.4821 O.2     1  UNL1       -0.2703
     24 H         141.1283  140.9603  158.3185 H       1  UNL1        0.1453
     25 H         142.6934  141.0961  157.6554 H       1  UNL1        0.1453
     26 N         142.9658  140.7014  162.3025 N.pl3   1  UNL1       -0.3292
     27 H         143.8213  140.3592  162.6493 H       1  UNL1        0.1471
     28 C         142.7542  142.1789  162.1529 C.3     1  UNL1        0.1114
     29 C         143.6859  142.9874  161.2996 C.3     1  UNL1        0.0278
     30 C         141.6109  142.8478  162.8568 C.ar    1  UNL1        0.0938
     31 N         140.3263  143.2949  162.2243 N.ar    1  UNL1       -0.1723
     32 N         139.4730  143.9106  163.2934 N.ar    1  UNL1       -0.2480
     33 C         138.1030  144.4909  163.1027 C.3     1  UNL1        0.1537
     34 C         140.2302  143.8439  164.5865 C.ar    1  UNL1        0.0921
     35 C         141.5515  143.1872  164.3167 C.ar    1  UNL1        0.0137
     36 C         142.6249  142.9171  165.3291 C.3     1  UNL1        0.0340
@<TRIPOS>BOND
     1    19    20    1
     2    20    18    1
     3    18    12    1
     4    12    13   ar
     5    13    14   ar
     6    14    15   ar
     7    15     1    1
     8     1     2   ar
     9     2     3   ar
    10     3     4   ar
    11     4    26    1
    12    26    28    1
    13    28    29    1
    14    28    30    1
    15    30    31   ar
    16    31    32   ar
    17    32    33    1
    18    32    34   ar
    19    34    35   ar
    20    35    36    1
    21     4     5   ar
    22     5    21    1
    23    21    22   am
    24    21    23    2
    25     5     6   ar
    26     6     7   ar
    27     7     8   ar
    28     8     9   ar
    29     9    10   ar
    30    10    11    1
    31    15    16   ar
    32    16    17   ar
    33    17    12   ar
    34    10     1   ar
    35     8     3   ar
    36    35    30   ar
    37    26    27    1
    38    22    24    1
    39    22    25    1
@<TRIPOS>MOLECULE
*****
 36 39 0 0 0
SMALL
GASTEIGER

@<TRIPOS>ATOM
      1 C         142.7184  140.0205  164.6767 C.ar    1  UNL1        0.0291
      2 C         141.4424  140.2844  163.9337 C.ar    1  UNL1        0.0050
      3 C         141.3882  140.0976  162.4464 C.ar    1  UNL1        0.0311
      4 C         140.1121  140.3614  161.7034 C.ar    1  UNL1        0.0522
      5 C         140.0578  140.1746  160.2161 C.ar    1  UNL1        0.0853
      6 C         141.2797  139.7240  159.4718 C.ar    1  UNL1        0.1045
      7 N         142.5557  139.4602  160.2147 N.ar    1  UNL1       -0.2435
      8 C         142.6100  139.6469  161.7021 C.ar    1  UNL1        0.0847
      9 C         143.8860  139.3831  162.4451 C.ar    1  UNL1        0.0488
     10 C         143.9403  139.5699  163.9324 C.ar    1  UNL1        0.1416
     11 F         145.2164  139.3061  164.6754 F       1  UNL1       -0.2041
     12 C         142.8812  140.5809  169.1388 C.ar    1  UNL1        0.0888
     13 C         142.8005  141.7755  168.2353 C.ar    1  UNL1        0.0173
     14 C         142.7463  141.5888  166.7480 C.ar    1  UNL1        0.0029
     15 C         142.7727  140.2073  166.1641 C.ar    1  UNL1        0.0213
     16 C         142.8533  139.0126  167.0675 C.ar    1  UNL1        0.0986
     17 N         142.9076  139.1994  168.5549 N.ar    1  UNL1       -0.2457
     18 C         142.9355  140.7676  170.6261 C.3     1  UNL1        0.1876
     19 C         140.3817  140.4027  170.9350 C.3     1  UNL1        0.1747
     20 O         141.6725  141.0106  171.3980 O.3     1  UNL1       -0.3447
     21 C         138.7817  140.4384  159.4730 C.2     1  UNL1        0.2455
     22 N         138.7350  141.5029  158.4173 N.am    1  UNL1       -0.3252
     23 O         137.5525  139.6378  159.7858 O.2     1  UNL1       -0.2703
     24 H         139.5418  142.0284  158.2120 H       1  UNL1        0.1453
     25 H         137.8975  141.6761  157.9296 H       1  UNL1        0.1453
     26 N         138.8902  140.8120  162.4477 N.pl3   1  UNL1       -0.3292
     27 H         138.2228  140.1517  162.7440 H       1  UNL1        0.1471
     28 C         138.6852  142.2689  162.7407 C.3     1  UNL1        0.1114
     29 C         137.7057  142.6912  163.7952 C.3     1  UNL1        0.0278
     30 C         139.4598  143.3032  161.9790 C.ar    1  UNL1        0.0938
     31 N         139.1940  143.7431  160.5697 N.ar    1  UNL1       -0.1723
     32 N         140.2061  144.7911  160.2126 N.ar    1  UNL1       -0.2480
     33 C         140.3088  145.5057  158.8978 C.3     1  UNL1        0.1537
     34 C         141.0973  144.9989  161.4011 C.ar    1  UNL1        0.0921
     35 C         140.6360  144.0794  162.4928 C.ar    1  UNL1        0.0137
     36 C         141.2443  143.9574  163.8585 C.3     1  UNL1        0.0340
@<TRIPOS>BOND
     1    19    20    1
     2    20    18    1
     3    18    12    1
     4    12    13   ar
     5    13    14   ar
     6    14    15   ar
     7    15     1    1
     8     1     2   ar
     9     2     3   ar
    10     3     4   ar
    11     4    26    1
    12    26    28    1
    13    28    29    1
    14    28    30    1
    15    30    31   ar
    16    31    32   ar
    17    32    33    1
    18    32    34   ar
    19    34    35   ar
    20    35    36    1
    21     4     5   ar
    22     5    21    1
    23    21    22   am
    24    21    23    2
    25     5     6   ar
    26     6     7   ar
    27     7     8   ar
    28     8     9   ar
    29     9    10   ar
    30    10    11    1
    31    15    16   ar
    32    16    17   ar
    33    17    12   ar
    34    10     1   ar
    35     8     3   ar
    36    35    30   ar
    37    26    27    1
    38    22    24    1
    39    22    25    1
@<TRIPOS>MOLECULE
*****
 36 39 0 0 0
SMALL
GASTEIGER

@<TRIPOS>ATOM
      1 C         142.9070  139.4479  164.3252 C.ar    1  UNL1        0.0291
      2 C         141.7047  139.8687  165.1174 C.ar    1  UNL1        0.0050
      3 C         141.7109  139.7454  166.6122 C.ar    1  UNL1        0.0311
      4 C         140.5086  140.1662  167.4045 C.ar    1  UNL1        0.0522
      5 C         140.5147  140.0430  168.8993 C.ar    1  UNL1        0.0853
      6 C         141.7231  139.4990  169.6021 C.ar    1  UNL1        0.1045
      7 N         142.9253  139.0782  168.8100 N.ar    1  UNL1       -0.2435
      8 C         142.9193  139.2015  167.3150 C.ar    1  UNL1        0.0847
      9 C         144.1215  138.7807  166.5229 C.ar    1  UNL1        0.0488
     10 C         144.1154  138.9039  165.0280 C.ar    1  UNL1        0.1416
     11 F         145.3177  138.4831  164.2358 F       1  UNL1       -0.2041
     12 C         142.8887  139.8176  159.8404 C.ar    1  UNL1        0.0888
     13 C         141.9697  138.8437  160.5164 C.ar    1  UNL1        0.0173
     14 C         141.9758  138.7205  162.0114 C.ar    1  UNL1        0.0029
     15 C         142.9009  139.5711  162.8303 C.ar    1  UNL1        0.0213
     16 C         143.8199  140.5449  162.1543 C.ar    1  UNL1        0.0986
     17 N         143.8139  140.6682  160.6594 N.ar    1  UNL1       -0.2457
     18 C         142.8827  139.9408  158.3455 C.3     1  UNL1        0.1876
     19 C         144.5145  140.5493  156.4176 C.3     1  UNL1        0.1747
     20 O         144.1327  139.6616  157.5649 O.3     1  UNL1       -0.3447
     21 C         139.3124  140.4638  169.6915 C.2     1  UNL1        0.2455
     22 N         139.3385  141.7454  170.4705 N.am    1  UNL1       -0.3252
     23 O         138.0841  139.6029  169.7048 O.2     1  UNL1       -0.2703
     24 H         140.1447  142.3104  170.4618 H       1  UNL1        0.1453
     25 H         138.5494  142.0216  170.9904 H       1  UNL1        0.1453
     26 N         139.3002  140.7102  166.7017 N.pl3   1  UNL1       -0.3292
     27 H         139.0650  141.6619  166.7921 H       1  UNL1        0.1471
     28 C         138.4501  139.8041  165.8612 C.3     1  UNL1        0.1114
     29 C         137.7848  138.6114  166.4813 C.3     1  UNL1        0.0278
     30 C         138.2654  140.0908  164.4004 C.ar    1  UNL1        0.0938
     31 N         138.3991  139.0986  163.2834 N.ar    1  UNL1       -0.1723
     32 N         138.1309  139.8147  161.9929 N.ar    1  UNL1       -0.2480
     33 C         138.1574  139.2034  160.6234 C.3     1  UNL1        0.1537
     34 C         137.8314  141.2494  162.3123 C.ar    1  UNL1        0.0921
     35 C         137.9146  141.4200  163.8003 C.ar    1  UNL1        0.0137
     36 C         137.6869  142.6959  164.5555 C.3     1  UNL1        0.0340
@<TRIPOS>BOND
     1    19    20    1
     2    20    18    1
     3    18    12    1
     4    12    13   ar
     5    13    14   ar
     6    14    15   ar
     7    15     1    1
     8     1     2   ar
     9     2     3   ar
    10     3     4   ar
    11     4    26    1
    12    26    28    1
    13    28    29    1
    14    28    30    1
    15    30    31   ar
    16    31    32   ar
    17    32    33    1
    18    32    34   ar
    19    34    35   ar
    20    35    36    1
    21     4     5   ar
    22     5    21    1
    23    21    22   am
    24    21    23    2
    25     5     6   ar
    26     6     7   ar
    27     7     8   ar
    28     8     9   ar
    29     9    10   ar
    30    10    11    1
    31    15    16   ar
    32    16    17   ar
    33    17    12   ar
    34    10     1   ar
    35     8     3   ar
    36    35    30   ar
    37    26    27    1
    38    22    24    1
    39    22    25    1
@<TRIPOS>MOLECULE
*****
 36 39 0 0 0
SMALL
GASTEIGER

@<TRIPOS>ATOM
      1 C         142.9369  142.0904  165.4170 C.ar    1  UNL1        0.0291
      2 C         142.4206  140.9767  164.5551 C.ar    1  UNL1        0.0050
      3 C         142.9417  140.8056  163.1590 C.ar    1  UNL1        0.0311
      4 C         142.4254  139.6918  162.2969 C.ar    1  UNL1        0.0522
      5 C         142.9465  139.5207  160.9009 C.ar    1  UNL1        0.0853
      6 C         143.9839  140.4632  160.3667 C.ar    1  UNL1        0.1045
      7 N         144.5003  141.5769  161.2287 N.ar    1  UNL1       -0.2435
      8 C         143.9791  141.7481  162.6249 C.ar    1  UNL1        0.0847
      9 C         144.4955  142.8618  163.4868 C.ar    1  UNL1        0.0488
     10 C         143.9744  143.0330  164.8829 C.ar    1  UNL1        0.1416
     11 F         144.4907  144.1467  165.7449 F       1  UNL1       -0.2041
     12 C         141.3736  142.6040  169.6054 C.ar    1  UNL1        0.0888
     13 C         142.8442  142.4248  169.3705 C.ar    1  UNL1        0.0173
     14 C         143.3653  142.2536  167.9744 C.ar    1  UNL1        0.0029
     15 C         142.4158  142.2616  166.8132 C.ar    1  UNL1        0.0213
     16 C         140.9452  142.4408  167.0481 C.ar    1  UNL1        0.0986
     17 N         140.4241  142.6120  168.4442 N.ar    1  UNL1       -0.2457
     18 C         140.8525  142.7752  171.0015 C.3     1  UNL1        0.1876
     19 C         140.3640  140.2293  171.1741 C.3     1  UNL1        0.1747
     20 O         140.5143  141.5706  171.8288 O.3     1  UNL1       -0.3447
     21 C         142.4301  138.4069  160.0388 C.2     1  UNL1        0.2455
     22 N         143.0078  137.0287  160.1685 N.am    1  UNL1       -0.3252
     23 O         141.3362  138.6715  159.0472 O.2     1  UNL1       -0.2703
     24 H         143.7257  136.8551  160.8193 H       1  UNL1        0.1453
     25 H         142.6689  136.2977  159.6027 H       1  UNL1        0.1453
     26 N         141.3879  138.7493  162.8311 N.pl3   1  UNL1       -0.3292
     27 H         141.6606  137.9684  163.3650 H       1  UNL1        0.1471
     28 C         139.9350  138.9966  162.5516 C.3     1  UNL1        0.1114
     29 C         139.1471  138.0065  161.7461 C.3     1  UNL1        0.0278
     30 C         139.2701  140.2339  163.0778 C.ar    1  UNL1        0.0938
     31 N         139.0610  141.5122  162.3211 N.ar    1  UNL1       -0.1723
     32 N         138.3592  142.4785  163.2287 N.ar    1  UNL1       -0.2480
     33 C         137.9533  143.8798  162.8799 C.3     1  UNL1        0.1537
     34 C         138.1345  141.7976  164.5462 C.ar    1  UNL1        0.0921
     35 C         138.6975  140.4104  164.4529 C.ar    1  UNL1        0.0137
     36 C         138.6893  139.3804  165.5434 C.3     1  UNL1        0.0340
@<TRIPOS>BOND
     1    19    20    1
     2    20    18    1
     3    18    12    1
     4    12    13   ar
     5    13    14   ar
     6    14    15   ar
     7    15     1    1
     8     1     2   ar
     9     2     3   ar
    10     3     4   ar
    11     4    26    1
    12    26    28    1
    13    28    29    1
    14    28    30    1
    15    30    31   ar
    16    31    32   ar
    17    32    33    1
    18    32    34   ar
    19    34    35   ar
    20    35    36    1
    21     4     5   ar
    22     5    21    1
    23    21    22   am
    24    21    23    2
    25     5     6   ar
    26     6     7   ar
    27     7     8   ar
    28     8     9   ar
    29     9    10   ar
    30    10    11    1
    31    15    16   ar
    32    16    17   ar
    33    17    12   ar
    34    10     1   ar
    35     8     3   ar
    36    35    30   ar
    37    26    27    1
    38    22    24    1
    39    22    25    1
@<TRIPOS>MOLECULE
*****
 36 39 0 0 0
SMALL
GASTEIGER

@<TRIPOS>ATOM
      1 C         142.7684  142.2640  164.6715 C.ar    1  UNL1        0.0291
      2 C         142.4312  141.0372  163.8772 C.ar    1  UNL1        0.0050
      3 C         142.8992  140.9108  162.4577 C.ar    1  UNL1        0.0311
      4 C         142.5620  139.6838  161.6632 C.ar    1  UNL1        0.0522
      5 C         143.0299  139.5574  160.2437 C.ar    1  UNL1        0.0853
      6 C         143.8351  140.6579  159.6186 C.ar    1  UNL1        0.1045
      7 N         144.1723  141.8847  160.4130 N.ar    1  UNL1       -0.2435
      8 C         143.7043  142.0112  161.8326 C.ar    1  UNL1        0.0847
      9 C         144.0415  143.2381  162.6269 C.ar    1  UNL1        0.0488
     10 C         143.5735  143.3645  164.0464 C.ar    1  UNL1        0.1416
     11 F         143.9107  144.5914  164.8408 F       1  UNL1       -0.2041
     12 C         141.3646  142.6435  168.9302 C.ar    1  UNL1        0.0888
     13 C         140.3892  142.8031  167.8019 C.ar    1  UNL1        0.0173
     14 C         140.8571  142.6767  166.3823 C.ar    1  UNL1        0.0029
     15 C         142.3005  142.3905  166.0911 C.ar    1  UNL1        0.0213
     16 C         143.2759  142.2308  167.2194 C.ar    1  UNL1        0.0986
     17 N         142.8080  142.3573  168.6389 N.ar    1  UNL1       -0.2457
     18 C         140.8967  142.7699  170.3497 C.3     1  UNL1        0.1876
     19 C         140.3748  140.2454  170.6733 C.3     1  UNL1        0.1747
     20 O         140.0647  141.6839  170.9647 O.3     1  UNL1       -0.3447
     21 C         142.6927  138.3305  159.4493 C.2     1  UNL1        0.2455
     22 N         141.9652  138.4588  158.1439 N.am    1  UNL1       -0.3252
     23 O         143.0831  136.9754  159.9603 O.2     1  UNL1       -0.2703
     24 H         141.7089  139.3482  157.8085 H       1  UNL1        0.1453
     25 H         141.7439  137.6536  157.6224 H       1  UNL1        0.1453
     26 N         141.7568  138.5834  162.2884 N.pl3   1  UNL1       -0.3292
     27 H         142.2117  137.8359  162.7396 H       1  UNL1        0.1471
     28 C         140.2586  138.6219  162.2260 C.3     1  UNL1        0.1114
     29 C         139.5506  138.2409  160.9597 C.3     1  UNL1        0.0278
     30 C         139.4684  139.0413  163.4300 C.ar    1  UNL1        0.0938
     31 N         139.1142  138.1708  164.5993 N.ar    1  UNL1       -0.1723
     32 N         138.3205  138.9964  165.5681 N.ar    1  UNL1       -0.2480
     33 C         137.7614  138.5242  166.8774 C.3     1  UNL1        0.1537
     34 C         138.1842  140.3770  164.9976 C.ar    1  UNL1        0.0921
     35 C         138.8936  140.4047  163.6763 C.ar    1  UNL1        0.0137
     36 C         139.0081  141.5882  162.7617 C.3     1  UNL1        0.0340
@<TRIPOS>BOND
     1    19    20    1
     2    20    18    1
     3    18    12    1
     4    12    13   ar
     5    13    14   ar
     6    14    15   ar
     7    15     1    1
     8     1     2   ar
     9     2     3   ar
    10     3     4   ar
    11     4    26    1
    12    26    28    1
    13    28    29    1
    14    28    30    1
    15    30    31   ar
    16    31    32   ar
    17    32    33    1
    18    32    34   ar
    19    34    35   ar
    20    35    36    1
    21     4     5   ar
    22     5    21    1
    23    21    22   am
    24    21    23    2
    25     5     6   ar
    26     6     7   ar
    27     7     8   ar
    28     8     9   ar
    29     9    10   ar
    30    10    11    1
    31    15    16   ar
    32    16    17   ar
    33    17    12   ar
    34    10     1   ar
    35     8     3   ar
    36    35    30   ar
    37    26    27    1
    38    22    24    1
    39    22    25    1
