@<TRIPOS>MOLECULE
*****
 27 31 0 0 0
SMALL
GASTEIGER

@<TRIPOS>ATOM
      1 C         138.5473  139.5673  165.6949 C.ar    1  UNL1       -0.0207
      2 C         138.7746  138.3731  164.8162 C.ar    1  UNL1       -0.0027
      3 C         138.7638  138.5269  163.3242 C.ar    1  UNL1        0.0188
      4 C         138.5257  139.8749  162.7109 C.ar    1  UNL1        0.0813
      5 N         138.5149  140.0287  161.2188 N.ar    1  UNL1       -0.2438
      6 C         138.2769  141.3767  160.6055 C.ar    1  UNL1        0.0990
      7 C         138.0496  142.5710  161.4843 C.ar    1  UNL1        0.0207
      8 C         138.0604  142.4171  162.9763 C.ar    1  UNL1        0.0031
      9 C         138.2985  141.0691  163.5896 C.ar    1  UNL1        0.0174
     10 C         138.3093  140.9153  165.0816 C.ar    1  UNL1       -0.0027
     11 C         138.2661  141.5305  159.1134 C.ar    1  UNL1        0.1035
     12 C         138.8004  142.7833  158.4847 C.ar    1  UNL1        0.0415
     13 C         138.7895  142.9371  156.9927 C.ar    1  UNL1        0.1052
     14 N         138.2445  141.8382  156.1293 N.ar    1  UNL1       -0.1934
     15 N         138.1043  141.7064  154.6417 N.ar    1  UNL1       -0.1397
     16 C         137.4834  140.3722  154.3510 C.ar    1  UNL1        0.2226
     17 N         137.2398  139.6795  155.6590 N.ar    1  UNL1       -0.1862
     18 C         137.7102  140.5855  156.7580 C.ar    1  UNL1        0.2546
     19 N         137.7210  140.4317  158.2501 N.ar    1  UNL1       -0.2084
     20 C         138.5581  139.4135  167.1871 C.3     1  UNL1        0.0437
     21 C         139.8038  139.7218  167.9638 C.3     1  UNL1        0.0768
     22 C         141.0958  142.4760  166.7832 C.3     1  UNL1        0.0173
     23 C         140.5205  142.2898  168.1558 C.3     1  UNL1        0.0576
     24 C         140.4380  143.3368  169.2268 C.3     1  UNL1        0.0174
     25 C         139.7931  142.7178  170.4315 C.3     1  UNL1        0.0187
     26 C         139.4770  141.2882  170.1049 C.3     1  UNL1        0.0721
     27 N         139.9266  141.0238  168.6985 N.3     1  UNL1       -0.2737
@<TRIPOS>BOND
     1    23    22    1
     2    23    24    1
     3    24    25    1
     4    25    26    1
     5    26    27    1
     6    27    21    1
     7    21    20    1
     8    20     1    1
     9     1     2   ar
    10     2     3   ar
    11     3     4   ar
    12     4     5   ar
    13     5     6   ar
    14     6    11    1
    15    11    12   ar
    16    12    13   ar
    17    13    14   ar
    18    14    15   ar
    19    15    16   ar
    20    16    17   ar
    21    17    18   ar
    22    18    19   ar
    23     6     7   ar
    24     7     8   ar
    25     8     9   ar
    26     9    10   ar
    27    27    23    1
    28    10     1   ar
    29     9     4   ar
    30    19    11   ar
    31    18    14   ar
@<TRIPOS>MOLECULE
*****
 27 31 0 0 0
SMALL
GASTEIGER

@<TRIPOS>ATOM
      1 C         139.5018  140.1470  167.5201 C.ar    1  UNL1       -0.0207
      2 C         140.1792  141.3078  166.8541 C.ar    1  UNL1       -0.0027
      3 C         140.4574  141.2692  165.3807 C.ar    1  UNL1        0.0188
      4 C         140.0582  140.0697  164.5732 C.ar    1  UNL1        0.0813
      5 N         140.3364  140.0312  163.0997 N.ar    1  UNL1       -0.2438
      6 C         139.9372  138.8317  162.2923 C.ar    1  UNL1        0.0990
      7 C         139.2598  137.6708  162.9583 C.ar    1  UNL1        0.0207
      8 C         138.9816  137.7095  164.4318 C.ar    1  UNL1        0.0031
      9 C         139.3808  138.9089  165.2392 C.ar    1  UNL1        0.0174
     10 C         139.1027  138.9475  166.7127 C.ar    1  UNL1       -0.0027
     11 C         140.2154  138.7931  160.8188 C.ar    1  UNL1        0.1035
     12 C         139.1197  139.0970  159.8404 C.ar    1  UNL1        0.0415
     13 C         139.3979  139.0583  158.3670 C.ar    1  UNL1        0.1052
     14 N         140.7717  138.7158  157.8718 N.ar    1  UNL1       -0.1934
     15 N         141.3403  138.6005  156.4886 N.ar    1  UNL1       -0.1397
     16 C         142.7873  138.2253  156.6120 C.ar    1  UNL1        0.2226
     17 N         143.1131  138.1088  158.0715 N.ar    1  UNL1       -0.1862
     18 C         141.8674  138.4120  158.8501 C.ar    1  UNL1        0.2546
     19 N         141.5893  138.4506  160.3237 N.ar    1  UNL1       -0.2084
     20 C         139.2236  140.1856  168.9936 C.3     1  UNL1        0.0437
     21 C         140.3531  140.0672  169.9735 C.3     1  UNL1        0.0768
     22 C         140.0191  143.2849  170.4021 C.3     1  UNL1        0.0173
     23 C         141.3083  142.5566  170.1627 C.3     1  UNL1        0.0576
     24 C         142.6703  143.1793  170.0783 C.3     1  UNL1        0.0174
     25 C         143.6657  142.0851  169.8291 C.3     1  UNL1        0.0187
     26 C         142.9187  140.7861  169.7595 C.3     1  UNL1        0.0721
     27 N         141.4618  141.0775  169.9657 N.3     1  UNL1       -0.2737
@<TRIPOS>BOND
     1    23    22    1
     2    23    24    1
     3    24    25    1
     4    25    26    1
     5    26    27    1
     6    27    21    1
     7    21    20    1
     8    20     1    1
     9     1     2   ar
    10     2     3   ar
    11     3     4   ar
    12     4     5   ar
    13     5     6   ar
    14     6    11    1
    15    11    12   ar
    16    12    13   ar
    17    13    14   ar
    18    14    15   ar
    19    15    16   ar
    20    16    17   ar
    21    17    18   ar
    22    18    19   ar
    23     6     7   ar
    24     7     8   ar
    25     8     9   ar
    26     9    10   ar
    27    27    23    1
    28    10     1   ar
    29     9     4   ar
    30    19    11   ar
    31    18    14   ar
@<TRIPOS>MOLECULE
*****
 27 31 0 0 0
SMALL
GASTEIGER

@<TRIPOS>ATOM
      1 C         142.7359  138.4905  165.4203 C.ar    1  UNL1       -0.0207
      2 C         141.5947  137.5944  165.0401 C.ar    1  UNL1       -0.0027
      3 C         141.3175  137.3054  163.5946 C.ar    1  UNL1        0.0188
      4 C         142.1815  137.9124  162.5292 C.ar    1  UNL1        0.0813
      5 N         141.9042  137.6233  161.0837 N.ar    1  UNL1       -0.2438
      6 C         142.7682  138.2304  160.0183 C.ar    1  UNL1        0.0990
      7 C         143.9095  139.1265  160.3985 C.ar    1  UNL1        0.0207
      8 C         144.1867  139.4155  161.8440 C.ar    1  UNL1        0.0031
      9 C         143.3227  138.8085  162.9094 C.ar    1  UNL1        0.0174
     10 C         143.5999  139.0975  164.3549 C.ar    1  UNL1       -0.0027
     11 C         142.4910  137.9414  158.5728 C.ar    1  UNL1        0.1035
     12 C         141.6424  138.8818  157.7692 C.ar    1  UNL1        0.0415
     13 C         141.3652  138.5927  156.3237 C.ar    1  UNL1        0.1052
     14 N         141.9365  137.3633  155.6817 N.ar    1  UNL1       -0.1934
     15 N         141.8358  136.8201  154.2871 N.ar    1  UNL1       -0.1397
     16 C         142.6220  135.5441  154.2288 C.ar    1  UNL1        0.2226
     17 N         143.2087  135.2986  155.5873 N.ar    1  UNL1       -0.1862
     18 C         142.7850  136.4229  156.4852 C.ar    1  UNL1        0.2546
     19 N         143.0623  136.7119  157.9308 N.ar    1  UNL1       -0.2084
     20 C         143.0132  138.7796  166.8658 C.3     1  UNL1        0.0437
     21 C         142.5736  140.0810  167.4682 C.3     1  UNL1        0.0768
     22 C         139.4068  140.1612  166.6845 C.3     1  UNL1        0.0173
     23 C         139.9710  140.1477  168.0743 C.3     1  UNL1        0.0576
     24 C         139.1787  140.1686  169.3478 C.3     1  UNL1        0.0174
     25 C         140.1447  140.1447  170.4951 C.3     1  UNL1        0.0187
     26 C         141.5341  140.1090  169.9306 C.3     1  UNL1        0.0721
     27 N         141.4266  140.1108  168.4345 N.3     1  UNL1       -0.2737
@<TRIPOS>BOND
     1    23    22    1
     2    23    24    1
     3    24    25    1
     4    25    26    1
     5    26    27    1
     6    27    21    1
     7    21    20    1
     8    20     1    1
     9     1     2   ar
    10     2     3   ar
    11     3     4   ar
    12     4     5   ar
    13     5     6   ar
    14     6    11    1
    15    11    12   ar
    16    12    13   ar
    17    13    14   ar
    18    14    15   ar
    19    15    16   ar
    20    16    17   ar
    21    17    18   ar
    22    18    19   ar
    23     6     7   ar
    24     7     8   ar
    25     8     9   ar
    26     9    10   ar
    27    27    23    1
    28    10     1   ar
    29     9     4   ar
    30    19    11   ar
    31    18    14   ar
@<TRIPOS>MOLECULE
*****
 27 31 0 0 0
SMALL
GASTEIGER

@<TRIPOS>ATOM
      1 C         142.2008  139.9100  167.3018 C.ar    1  UNL1       -0.0207
      2 C         140.9012  139.6168  166.6127 C.ar    1  UNL1       -0.0027
      3 C         140.5259  140.3667  165.3690 C.ar    1  UNL1        0.0188
      4 C         141.4503  141.4098  164.8145 C.ar    1  UNL1        0.0813
      5 N         141.0750  142.1597  163.5707 N.ar    1  UNL1       -0.2438
      6 C         141.9993  143.2028  163.0162 C.ar    1  UNL1        0.0990
      7 C         143.2990  143.4960  163.7054 C.ar    1  UNL1        0.0207
      8 C         143.6743  142.7461  164.9491 C.ar    1  UNL1        0.0031
      9 C         142.7499  141.7030  165.5036 C.ar    1  UNL1        0.0174
     10 C         143.1252  140.9531  166.7473 C.ar    1  UNL1       -0.0027
     11 C         141.6241  143.9527  161.7725 C.ar    1  UNL1        0.1035
     12 C         140.4225  144.8507  161.7719 C.ar    1  UNL1        0.0415
     13 C         140.0473  145.6006  160.5282 C.ar    1  UNL1        0.1052
     14 N         140.8735  145.4525  159.2851 N.ar    1  UNL1       -0.1934
     15 N         140.7498  146.0605  157.9194 N.ar    1  UNL1       -0.1397
     16 C         141.8749  145.5383  157.0759 C.ar    1  UNL1        0.2226
     17 N         142.6939  144.6075  157.9203 N.ar    1  UNL1       -0.1862
     18 C         142.0750  144.5546  159.2856 C.ar    1  UNL1        0.2546
     19 N         142.4503  143.8046  160.5293 N.ar    1  UNL1       -0.2084
     20 C         142.5762  139.1601  168.5456 C.3     1  UNL1        0.0437
     21 C         142.2175  139.7142  169.8925 C.3     1  UNL1        0.0768
     22 C         143.8300  142.5509  169.9372 C.3     1  UNL1        0.0173
     23 C         142.3422  142.3812  170.0233 C.3     1  UNL1        0.0576
     24 C         141.3343  143.4854  170.1452 C.3     1  UNL1        0.0174
     25 C         139.9701  142.8640  170.1999 C.3     1  UNL1        0.0187
     26 C         140.1350  141.3756  170.1119 C.3     1  UNL1        0.0721
     27 N         141.6009  141.0773  170.0028 N.3     1  UNL1       -0.2737
@<TRIPOS>BOND
     1    23    22    1
     2    23    24    1
     3    24    25    1
     4    25    26    1
     5    26    27    1
     6    27    21    1
     7    21    20    1
     8    20     1    1
     9     1     2   ar
    10     2     3   ar
    11     3     4   ar
    12     4     5   ar
    13     5     6   ar
    14     6    11    1
    15    11    12   ar
    16    12    13   ar
    17    13    14   ar
    18    14    15   ar
    19    15    16   ar
    20    16    17   ar
    21    17    18   ar
    22    18    19   ar
    23     6     7   ar
    24     7     8   ar
    25     8     9   ar
    26     9    10   ar
    27    27    23    1
    28    10     1   ar
    29     9     4   ar
    30    19    11   ar
    31    18    14   ar
@<TRIPOS>MOLECULE
*****
 27 31 0 0 0
SMALL
GASTEIGER

@<TRIPOS>ATOM
      1 C         139.3763  137.6116  164.4904 C.ar    1  UNL1       -0.0207
      2 C         140.8636  137.4806  164.6340 C.ar    1  UNL1       -0.0027
      3 C         141.7503  137.6476  163.4357 C.ar    1  UNL1        0.0188
      4 C         141.1496  137.9456  162.0939 C.ar    1  UNL1        0.0813
      5 N         142.0364  138.1126  160.8956 N.ar    1  UNL1       -0.2438
      6 C         141.4357  138.4106  159.5538 C.ar    1  UNL1        0.0990
      7 C         139.9483  138.5415  159.4103 C.ar    1  UNL1        0.0207
      8 C         139.0616  138.3745  160.6086 C.ar    1  UNL1        0.0031
      9 C         139.6623  138.0766  161.9504 C.ar    1  UNL1        0.0174
     10 C         138.7756  137.9096  163.1486 C.ar    1  UNL1       -0.0027
     11 C         142.3224  138.5775  158.3555 C.ar    1  UNL1        0.1035
     12 C         142.2826  137.5682  157.2466 C.ar    1  UNL1        0.0415
     13 C         143.1693  137.7352  156.0483 C.ar    1  UNL1        0.1052
     14 N         144.0958  138.9115  155.9589 N.ar    1  UNL1       -0.1934
     15 N         145.0790  139.3372  154.9092 N.ar    1  UNL1       -0.1397
     16 C         145.7265  140.6096  155.3693 C.ar    1  UNL1        0.2226
     17 N         145.1434  140.9703  156.7035 N.ar    1  UNL1       -0.1862
     18 C         144.1355  139.9208  157.0678 C.ar    1  UNL1        0.2546
     19 N         143.2488  139.7539  158.2662 N.ar    1  UNL1       -0.2084
     20 C         138.4895  137.4446  165.6887 C.3     1  UNL1        0.0437
     21 C         138.0239  138.6496  166.4510 C.3     1  UNL1        0.0768
     22 C         138.2034  141.2228  164.4520 C.3     1  UNL1        0.0173
     23 C         139.0159  141.0141  165.6955 C.3     1  UNL1        0.0576
     24 C         140.0534  141.9514  166.2385 C.3     1  UNL1        0.0174
     25 C         140.6122  141.3479  167.4930 C.3     1  UNL1        0.0187
     26 C         139.9199  140.0376  167.7252 C.3     1  UNL1        0.0721
     27 N         138.9334  139.8313  166.6143 N.3     1  UNL1       -0.2737
@<TRIPOS>BOND
     1    23    22    1
     2    23    24    1
     3    24    25    1
     4    25    26    1
     5    26    27    1
     6    27    21    1
     7    21    20    1
     8    20     1    1
     9     1     2   ar
    10     2     3   ar
    11     3     4   ar
    12     4     5   ar
    13     5     6   ar
    14     6    11    1
    15    11    12   ar
    16    12    13   ar
    17    13    14   ar
    18    14    15   ar
    19    15    16   ar
    20    16    17   ar
    21    17    18   ar
    22    18    19   ar
    23     6     7   ar
    24     7     8   ar
    25     8     9   ar
    26     9    10   ar
    27    27    23    1
    28    10     1   ar
    29     9     4   ar
    30    19    11   ar
    31    18    14   ar
@<TRIPOS>MOLECULE
*****
 27 31 0 0 0
SMALL
GASTEIGER

@<TRIPOS>ATOM
      1 C         142.6781  138.3442  165.0938 C.ar    1  UNL1       -0.0207
      2 C         141.4575  137.5305  164.7809 C.ar    1  UNL1       -0.0027
      3 C         141.0415  137.3203  163.3552 C.ar    1  UNL1        0.0188
      4 C         141.8461  137.9237  162.2424 C.ar    1  UNL1        0.0813
      5 N         141.4301  137.7134  160.8166 N.ar    1  UNL1       -0.2438
      6 C         142.2348  138.3168  159.7038 C.ar    1  UNL1        0.0990
      7 C         143.4555  139.1305  160.0167 C.ar    1  UNL1        0.0207
      8 C         143.8715  139.3407  161.4424 C.ar    1  UNL1        0.0031
      9 C         143.0668  138.7373  162.5552 C.ar    1  UNL1        0.0174
     10 C         143.4828  138.9476  163.9810 C.ar    1  UNL1       -0.0027
     11 C         141.8188  138.1065  158.2780 C.ar    1  UNL1        0.1035
     12 C         142.8237  138.2531  157.1741 C.ar    1  UNL1        0.0415
     13 C         142.4077  138.0429  155.7484 C.ar    1  UNL1        0.1052
     14 N         140.9868  137.6860  155.4265 N.ar    1  UNL1       -0.1934
     15 N         140.2887  137.4200  154.1258 N.ar    1  UNL1       -0.1397
     16 C         138.8523  137.1090  154.4258 C.ar    1  UNL1        0.2226
     17 N         138.6626  137.1828  155.9120 N.ar    1  UNL1       -0.1862
     18 C         139.9818  137.5395  156.5304 C.ar    1  UNL1        0.2546
     19 N         140.3978  137.7497  157.9562 N.ar    1  UNL1       -0.2084
     20 C         143.0942  138.5545  166.5196 C.3     1  UNL1        0.0437
     21 C         142.7907  139.8534  167.2056 C.3     1  UNL1        0.0768
     22 C         139.6700  140.3831  166.4122 C.3     1  UNL1        0.0173
     23 C         140.2060  140.1880  167.7994 C.3     1  UNL1        0.0576
     24 C         139.4018  140.2021  169.0655 C.3     1  UNL1        0.0174
     25 C         140.3392  139.9674  170.2128 C.3     1  UNL1        0.0187
     26 C         141.7229  139.8081  169.6557 C.3     1  UNL1        0.0721
     27 N         141.6405  139.9445  168.1641 N.3     1  UNL1       -0.2737
@<TRIPOS>BOND
     1    23    22    1
     2    23    24    1
     3    24    25    1
     4    25    26    1
     5    26    27    1
     6    27    21    1
     7    21    20    1
     8    20     1    1
     9     1     2   ar
    10     2     3   ar
    11     3     4   ar
    12     4     5   ar
    13     5     6   ar
    14     6    11    1
    15    11    12   ar
    16    12    13   ar
    17    13    14   ar
    18    14    15   ar
    19    15    16   ar
    20    16    17   ar
    21    17    18   ar
    22    18    19   ar
    23     6     7   ar
    24     7     8   ar
    25     8     9   ar
    26     9    10   ar
    27    27    23    1
    28    10     1   ar
    29     9     4   ar
    30    19    11   ar
    31    18    14   ar
@<TRIPOS>MOLECULE
*****
 27 31 0 0 0
SMALL
GASTEIGER

@<TRIPOS>ATOM
      1 C         139.8503  140.5237  167.1358 C.ar    1  UNL1       -0.0207
      2 C         139.9329  139.4827  166.0591 C.ar    1  UNL1       -0.0027
      3 C         140.2769  139.8820  164.6547 C.ar    1  UNL1        0.0188
      4 C         140.5382  141.3223  164.3271 C.ar    1  UNL1        0.0813
      5 N         140.8821  141.7216  162.9227 N.ar    1  UNL1       -0.2438
      6 C         141.1434  143.1619  162.5951 C.ar    1  UNL1        0.0990
      7 C         141.0607  144.2029  163.6720 C.ar    1  UNL1        0.0207
      8 C         140.7168  143.8036  165.0763 C.ar    1  UNL1        0.0031
      9 C         140.4555  142.3633  165.4039 C.ar    1  UNL1        0.0174
     10 C         140.1116  141.9640  166.8083 C.ar    1  UNL1       -0.0027
     11 C         141.4873  143.5612  161.1908 C.ar    1  UNL1        0.1035
     12 C         142.6791  142.9563  160.5096 C.ar    1  UNL1        0.0415
     13 C         143.0230  143.3556  159.1052 C.ar    1  UNL1        0.1052
     14 N         142.1752  144.3598  158.3820 N.ar    1  UNL1       -0.1934
     15 N         142.2668  144.9435  157.0033 N.ar    1  UNL1       -0.1397
     16 C         141.1318  145.9090  156.8324 C.ar    1  UNL1        0.2226
     17 N         140.3386  145.9221  158.1055 N.ar    1  UNL1       -0.1862
     18 C         140.9835  144.9646  159.0632 C.ar    1  UNL1        0.2546
     19 N         140.6395  144.5653  160.4676 N.ar    1  UNL1       -0.2084
     20 C         139.5063  140.1244  168.5403 C.3     1  UNL1        0.0437
     21 C         140.5930  139.9633  169.5616 C.3     1  UNL1        0.0768
     22 C         139.9087  142.9884  170.5764 C.3     1  UNL1        0.0173
     23 C         141.2718  142.4563  170.2467 C.3     1  UNL1        0.0576
     24 C         142.5597  143.2212  170.3255 C.3     1  UNL1        0.0174
     25 C         143.6703  142.3034  169.9077 C.3     1  UNL1        0.0187
     26 C         143.0687  140.9712  169.5707 C.3     1  UNL1        0.0721
     27 N         141.5864  141.0658  169.7802 N.3     1  UNL1       -0.2737
@<TRIPOS>BOND
     1    23    22    1
     2    23    24    1
     3    24    25    1
     4    25    26    1
     5    26    27    1
     6    27    21    1
     7    21    20    1
     8    20     1    1
     9     1     2   ar
    10     2     3   ar
    11     3     4   ar
    12     4     5   ar
    13     5     6   ar
    14     6    11    1
    15    11    12   ar
    16    12    13   ar
    17    13    14   ar
    18    14    15   ar
    19    15    16   ar
    20    16    17   ar
    21    17    18   ar
    22    18    19   ar
    23     6     7   ar
    24     7     8   ar
    25     8     9   ar
    26     9    10   ar
    27    27    23    1
    28    10     1   ar
    29     9     4   ar
    30    19    11   ar
    31    18    14   ar
@<TRIPOS>MOLECULE
*****
 27 31 0 0 0
SMALL
GASTEIGER

@<TRIPOS>ATOM
      1 C         142.8491  138.5066  165.3747 C.ar    1  UNL1       -0.0207
      2 C         141.6661  137.6418  165.0546 C.ar    1  UNL1       -0.0027
      3 C         141.3175  137.3468  163.6258 C.ar    1  UNL1        0.0188
      4 C         142.1519  137.9166  162.5172 C.ar    1  UNL1        0.0813
      5 N         141.8033  137.6215  161.0883 N.ar    1  UNL1       -0.2438
      6 C         142.6377  138.1913  159.9797 C.ar    1  UNL1        0.0990
      7 C         143.8208  139.0561  160.2999 C.ar    1  UNL1        0.0207
      8 C         144.1694  139.3511  161.7286 C.ar    1  UNL1        0.0031
      9 C         143.3350  138.7814  162.8373 C.ar    1  UNL1        0.0174
     10 C         143.6836  139.0764  164.2660 C.ar    1  UNL1       -0.0027
     11 C         142.2891  137.8963  158.5509 C.ar    1  UNL1        0.1035
     12 C         141.1795  138.6493  157.8788 C.ar    1  UNL1        0.0415
     13 C         140.8309  138.3543  156.4500 C.ar    1  UNL1        0.1052
     14 N         141.5919  137.3063  155.6933 N.ar    1  UNL1       -0.1934
     15 N         141.4754  136.8015  154.2856 N.ar    1  UNL1       -0.1397
     16 C         142.5130  135.7365  154.0878 C.ar    1  UNL1        0.2226
     17 N         143.2708  135.5831  155.3732 N.ar    1  UNL1       -0.1862
     18 C         142.7015  136.5532  156.3654 C.ar    1  UNL1        0.2546
     19 N         143.0501  136.8482  157.7943 N.ar    1  UNL1       -0.2084
     20 C         143.1978  138.8017  166.8035 C.3     1  UNL1        0.0437
     21 C         142.5308  139.9390  167.5188 C.3     1  UNL1        0.0768
     22 C         139.2989  139.7644  167.1020 C.3     1  UNL1        0.0173
     23 C         140.2010  140.8342  166.5618 C.3     1  UNL1        0.0576
     24 C         139.7759  142.0115  165.7353 C.3     1  UNL1        0.0174
     25 C         140.9988  142.8194  165.4159 C.3     1  UNL1        0.0187
     26 C         142.1797  142.1413  166.0452 C.3     1  UNL1        0.0721
     27 N         141.6865  140.9144  166.7534 N.3     1  UNL1       -0.2737
@<TRIPOS>BOND
     1    23    22    1
     2    23    24    1
     3    24    25    1
     4    25    26    1
     5    26    27    1
     6    27    21    1
     7    21    20    1
     8    20     1    1
     9     1     2   ar
    10     2     3   ar
    11     3     4   ar
    12     4     5   ar
    13     5     6   ar
    14     6    11    1
    15    11    12   ar
    16    12    13   ar
    17    13    14   ar
    18    14    15   ar
    19    15    16   ar
    20    16    17   ar
    21    17    18   ar
    22    18    19   ar
    23     6     7   ar
    24     7     8   ar
    25     8     9   ar
    26     9    10   ar
    27    27    23    1
    28    10     1   ar
    29     9     4   ar
    30    19    11   ar
    31    18    14   ar
@<TRIPOS>MOLECULE
*****
 27 31 0 0 0
SMALL
GASTEIGER

@<TRIPOS>ATOM
      1 C         139.9794  143.5325  165.3039 C.ar    1  UNL1       -0.0207
      2 C         138.8114  144.3287  164.8021 C.ar    1  UNL1       -0.0027
      3 C         138.7871  144.8110  163.3820 C.ar    1  UNL1        0.0188
      4 C         139.9309  144.4972  162.4637 C.ar    1  UNL1        0.0813
      5 N         139.9066  144.9795  161.0435 N.ar    1  UNL1       -0.2438
      6 C         141.0504  144.6657  160.1252 C.ar    1  UNL1        0.0990
      7 C         142.2184  143.8695  160.6271 C.ar    1  UNL1        0.0207
      8 C         142.2427  143.3872  162.0472 C.ar    1  UNL1        0.0031
      9 C         141.0989  143.7010  162.9655 C.ar    1  UNL1        0.0174
     10 C         141.1232  143.2187  164.3856 C.ar    1  UNL1       -0.0027
     11 C         141.0261  145.1480  158.7051 C.ar    1  UNL1        0.1035
     12 C         142.0935  144.7107  157.7462 C.ar    1  UNL1        0.0415
     13 C         142.0692  145.1931  156.3261 C.ar    1  UNL1        0.1052
     14 N         140.9776  146.1126  155.8648 N.ar    1  UNL1       -0.1934
     15 N         140.6947  146.7473  154.5355 N.ar    1  UNL1       -0.1397
     16 C         139.4526  147.5768  154.6728 C.ar    1  UNL1        0.2226
     17 N         138.9677  147.4548  156.0871 N.ar    1  UNL1       -0.1862
     18 C         139.9103  146.5499  156.8237 C.ar    1  UNL1        0.2546
     19 N         139.9345  146.0676  158.2439 N.ar    1  UNL1       -0.2084
     20 C         140.0037  143.0502  166.7241 C.3     1  UNL1        0.0437
     21 C         141.2234  142.3622  167.2618 C.3     1  UNL1        0.0768
     22 C         143.4796  142.1905  169.6132 C.3     1  UNL1        0.0173
     23 C         142.1681  141.4630  169.5950 C.3     1  UNL1        0.0576
     24 C         141.6633  140.5287  170.6544 C.3     1  UNL1        0.0174
     25 C         140.3142  140.0302  170.2284 C.3     1  UNL1        0.0187
     26 C         139.9852  140.6564  168.9056 C.3     1  UNL1        0.0721
     27 N         141.1310  141.5419  168.5142 N.3     1  UNL1       -0.2737
@<TRIPOS>BOND
     1    23    22    1
     2    23    24    1
     3    24    25    1
     4    25    26    1
     5    26    27    1
     6    27    21    1
     7    21    20    1
     8    20     1    1
     9     1     2   ar
    10     2     3   ar
    11     3     4   ar
    12     4     5   ar
    13     5     6   ar
    14     6    11    1
    15    11    12   ar
    16    12    13   ar
    17    13    14   ar
    18    14    15   ar
    19    15    16   ar
    20    16    17   ar
    21    17    18   ar
    22    18    19   ar
    23     6     7   ar
    24     7     8   ar
    25     8     9   ar
    26     9    10   ar
    27    27    23    1
    28    10     1   ar
    29     9     4   ar
    30    19    11   ar
    31    18    14   ar
