@<TRIPOS>MOLECULE
*****
 29 31 0 0 0
SMALL
GASTEIGER

@<TRIPOS>ATOM
      1 C         139.4244  137.8069  163.4870 C.ar    1  UNL1        0.1393
      2 C         139.1331  138.3687  164.8470 C.ar    1  UNL1        0.0370
      3 C         140.2583  138.6566  165.7962 C.ar    1  UNL1        0.0063
      4 C         141.6748  138.3828  165.3854 C.ar    1  UNL1        0.0392
      5 C         141.9660  137.8211  164.0254 C.ar    1  UNL1        0.0063
      6 C         140.8409  137.5331  163.0763 C.ar    1  UNL1        0.0370
      7 C         142.8000  138.6708  166.3347 C.2     1  UNL1        0.1961
      8 O         143.9893  137.7583  166.3869 O.2     1  UNL1       -0.2866
      9 C         142.7358  139.8713  167.2317 C.ar    1  UNL1        0.0460
     10 C         142.4007  139.7051  168.6843 C.ar    1  UNL1        0.0151
     11 C         142.3365  140.9057  169.5813 C.ar    1  UNL1        0.0578
     12 CL        142.0013  140.7395  171.0339 Cl      1  UNL1       -0.0822
     13 C         142.6074  142.2724  169.0257 C.ar    1  UNL1        0.0119
     14 C         142.9425  142.4386  167.5731 C.ar    1  UNL1        0.0077
     15 C         143.0067  141.2381  166.6761 C.ar    1  UNL1        0.0377
     16 BR        143.3419  141.4043  165.2235 Br      1  UNL1       -0.0489
     17 O         138.2992  137.5189  162.5377 O.3     1  UNL1       -0.4656
     18 C         137.6769  138.6346  161.7517 C.3     1  UNL1        0.2897
     19 O         139.4155  140.4940  161.2320 O.2     1  UNL1       -0.2707
     20 C         138.1669  140.0412  161.9292 C.2     1  UNL1        0.2707
     21 N         137.4083  140.9950  162.8037 N.am    1  UNL1       -0.2807
     22 H         136.5888  140.6978  163.2612 H       1  UNL1        0.1550
     23 C         137.8983  142.4015  162.9811 C.ar    1  UNL1        0.0558
     24 C         138.4192  143.1686  161.8020 C.ar    1  UNL1        0.0355
     25 C         138.9092  144.5751  161.9793 C.ar    1  UNL1        0.1026
     26 N         138.8783  145.2147  163.3358 N.ar    1  UNL1       -0.2164
     27 C         138.3573  144.4477  164.5149 C.ar    1  UNL1        0.2236
     28 F         138.3264  145.0872  165.8714 F       1  UNL1       -0.1832
     29 C         137.8673  143.0411  164.3376 C.ar    1  UNL1        0.0643
@<TRIPOS>BOND
     1    19    20    2
     2    20    18    1
     3    18    17    1
     4    17     1    1
     5     1     2   ar
     6     2     3   ar
     7     3     4   ar
     8     4     7    1
     9     7     8    2
    10     7     9    1
    11     9    10   ar
    12    10    11   ar
    13    11    12    1
    14    11    13   ar
    15    13    14   ar
    16    14    15   ar
    17    15    16    1
    18     4     5   ar
    19     5     6   ar
    20    20    21   am
    21    21    23    1
    22    23    24   ar
    23    24    25   ar
    24    25    26   ar
    25    26    27   ar
    26    27    28    1
    27    27    29   ar
    28     6     1   ar
    29    29    23   ar
    30    15     9   ar
    31    21    22    1
@<TRIPOS>MOLECULE
*****
 29 31 0 0 0
SMALL
GASTEIGER

@<TRIPOS>ATOM
      1 C         138.4105  143.6337  163.5631 C.ar    1  UNL1        0.1393
      2 C         137.7691  142.3464  163.1372 C.ar    1  UNL1        0.0370
      3 C         137.9413  141.1111  163.9703 C.ar    1  UNL1        0.0063
      4 C         138.7550  141.1630  165.2294 C.ar    1  UNL1        0.0392
      5 C         139.3965  142.4502  165.6553 C.ar    1  UNL1        0.0063
      6 C         139.2242  143.6856  164.8221 C.ar    1  UNL1        0.0370
      7 C         138.9272  139.9275  166.0625 C.2     1  UNL1        0.1961
      8 O         138.0011  138.7623  165.8765 O.2     1  UNL1       -0.2866
      9 C         140.0256  139.8573  167.0817 C.ar    1  UNL1        0.0460
     10 C         139.7302  140.1455  168.5238 C.ar    1  UNL1        0.0151
     11 C         140.8286  140.0753  169.5430 C.ar    1  UNL1        0.0578
     12 CL        140.5331  140.3634  170.9851 Cl      1  UNL1       -0.0822
     13 C         142.2223  139.7169  169.1200 C.ar    1  UNL1        0.0119
     14 C         142.5178  139.4287  167.6779 C.ar    1  UNL1        0.0077
     15 C         141.4194  139.4989  166.6587 C.ar    1  UNL1        0.0377
     16 BR        141.7149  139.2107  165.2166 Br      1  UNL1       -0.0489
     17 O         138.2383  144.8691  162.7299 O.3     1  UNL1       -0.4656
     18 C         139.4298  145.5074  162.0797 C.3     1  UNL1        0.2897
     19 O         141.8037  145.6085  163.1306 O.2     1  UNL1       -0.2707
     20 C         140.7943  144.9128  162.2663 C.2     1  UNL1        0.2707
     21 N         141.1493  143.6226  161.5886 N.am    1  UNL1       -0.2807
     22 H         140.4868  143.1660  161.0213 H       1  UNL1        0.1550
     23 C         142.5137  143.0281  161.7753 C.ar    1  UNL1        0.0558
     24 C         143.5278  143.1171  160.6734 C.ar    1  UNL1        0.0355
     25 C         144.8922  142.5226  160.8601 C.ar    1  UNL1        0.1026
     26 N         145.2427  141.8392  162.1485 N.ar    1  UNL1       -0.2164
     27 C         144.2288  141.7502  163.2503 C.ar    1  UNL1        0.2236
     28 F         144.5793  141.0668  164.5387 F       1  UNL1       -0.1832
     29 C         142.8642  142.3447  163.0637 C.ar    1  UNL1        0.0643
@<TRIPOS>BOND
     1    19    20    2
     2    20    18    1
     3    18    17    1
     4    17     1    1
     5     1     2   ar
     6     2     3   ar
     7     3     4   ar
     8     4     7    1
     9     7     8    2
    10     7     9    1
    11     9    10   ar
    12    10    11   ar
    13    11    12    1
    14    11    13   ar
    15    13    14   ar
    16    14    15   ar
    17    15    16    1
    18     4     5   ar
    19     5     6   ar
    20    20    21   am
    21    21    23    1
    22    23    24   ar
    23    24    25   ar
    24    25    26   ar
    25    26    27   ar
    26    27    28    1
    27    27    29   ar
    28     6     1   ar
    29    29    23   ar
    30    15     9   ar
    31    21    22    1
@<TRIPOS>MOLECULE
*****
 29 31 0 0 0
SMALL
GASTEIGER

@<TRIPOS>ATOM
      1 C         138.5977  143.7845  163.8596 C.ar    1  UNL1        0.1393
      2 C         137.8641  142.5386  163.4602 C.ar    1  UNL1        0.0370
      3 C         138.0144  141.2867  164.2726 C.ar    1  UNL1        0.0063
      4 C         138.8983  141.2807  165.4845 C.ar    1  UNL1        0.0392
      5 C         139.6319  142.5266  165.8840 C.ar    1  UNL1        0.0063
      6 C         139.4816  143.7784  165.0715 C.ar    1  UNL1        0.0370
      7 C         139.0486  140.0287  166.2970 C.2     1  UNL1        0.1961
      8 O         137.9001  139.0716  166.4192 O.2     1  UNL1       -0.2866
      9 C         140.3472  139.7340  166.9873 C.ar    1  UNL1        0.0460
     10 C         141.5116  139.2077  166.2017 C.ar    1  UNL1        0.0151
     11 C         142.8103  138.9130  166.8921 C.ar    1  UNL1        0.0578
     12 CL        143.9748  138.3867  166.1065 Cl      1  UNL1       -0.0822
     13 C         142.9446  139.1445  168.3680 C.ar    1  UNL1        0.0119
     14 C         141.7802  139.6707  169.1536 C.ar    1  UNL1        0.0077
     15 C         140.4815  139.9655  168.4633 C.ar    1  UNL1        0.0377
     16 BR        139.3171  140.4918  169.2489 Br      1  UNL1       -0.0489
     17 O         138.4474  145.0364  163.0471 O.3     1  UNL1       -0.4656
     18 C         139.6109  145.5649  162.2616 C.3     1  UNL1        0.2897
     19 O         142.0071  145.6219  163.2641 O.2     1  UNL1       -0.2707
     20 C         140.9674  144.9447  162.4213 C.2     1  UNL1        0.2707
     21 N         141.2840  143.6475  161.7381 N.am    1  UNL1       -0.2807
     22 H         140.6016  143.2030  161.1849 H       1  UNL1        0.1550
     23 C         142.6405  143.0274  161.8978 C.ar    1  UNL1        0.0558
     24 C         143.6289  143.0852  160.7709 C.ar    1  UNL1        0.0355
     25 C         144.9854  142.4650  160.9306 C.ar    1  UNL1        0.1026
     26 N         145.3534  141.7872  162.2171 N.ar    1  UNL1       -0.2164
     27 C         144.3650  141.7294  163.3439 C.ar    1  UNL1        0.2236
     28 F         144.7331  141.0515  164.6303 F       1  UNL1       -0.1832
     29 C         143.0085  142.3495  163.1842 C.ar    1  UNL1        0.0643
@<TRIPOS>BOND
     1    19    20    2
     2    20    18    1
     3    18    17    1
     4    17     1    1
     5     1     2   ar
     6     2     3   ar
     7     3     4   ar
     8     4     7    1
     9     7     8    2
    10     7     9    1
    11     9    10   ar
    12    10    11   ar
    13    11    12    1
    14    11    13   ar
    15    13    14   ar
    16    14    15   ar
    17    15    16    1
    18     4     5   ar
    19     5     6   ar
    20    20    21   am
    21    21    23    1
    22    23    24   ar
    23    24    25   ar
    24    25    26   ar
    25    26    27   ar
    26    27    28    1
    27    27    29   ar
    28     6     1   ar
    29    29    23   ar
    30    15     9   ar
    31    21    22    1
@<TRIPOS>MOLECULE
*****
 29 31 0 0 0
SMALL
GASTEIGER

@<TRIPOS>ATOM
      1 C         138.5693  143.9157  163.3977 C.ar    1  UNL1        0.1393
      2 C         139.4373  143.8980  164.6209 C.ar    1  UNL1        0.0370
      3 C         139.5214  142.6595  165.4629 C.ar    1  UNL1        0.0063
      4 C         138.7376  141.4387  165.0817 C.ar    1  UNL1        0.0392
      5 C         137.8696  141.4564  163.8585 C.ar    1  UNL1        0.0063
      6 C         137.7855  142.6949  163.0165 C.ar    1  UNL1        0.0370
      7 C         138.8218  140.2002  165.9238 C.2     1  UNL1        0.1961
      8 O         137.7431  139.1613  165.8396 O.2     1  UNL1       -0.2866
      9 C         139.9847  140.0007  166.8501 C.ar    1  UNL1        0.0460
     10 C         139.8293  140.2692  168.3176 C.ar    1  UNL1        0.0151
     11 C         140.9922  140.0696  169.2439 C.ar    1  UNL1        0.0578
     12 CL        140.8368  140.3381  170.7114 Cl      1  UNL1       -0.0822
     13 C         142.3104  139.6016  168.7025 C.ar    1  UNL1        0.0119
     14 C         142.4659  139.3331  167.2349 C.ar    1  UNL1        0.0077
     15 C         141.3030  139.5326  166.3087 C.ar    1  UNL1        0.0377
     16 BR        141.4584  139.2641  164.8412 Br      1  UNL1       -0.0489
     17 O         138.4851  145.1542  162.5556 O.3     1  UNL1       -0.4656
     18 C         139.7154  145.6914  161.8866 C.3     1  UNL1        0.2897
     19 O         139.3426  144.0729  159.8887 O.2     1  UNL1       -0.2707
     20 C         140.1778  145.1060  160.5852 C.2     1  UNL1        0.2707
     21 N         141.4755  145.5536  159.9805 N.am    1  UNL1       -0.2807
     22 H         142.0237  146.2316  160.4376 H       1  UNL1        0.1550
     23 C         141.9378  144.9681  158.6791 C.ar    1  UNL1        0.0558
     24 C         142.6840  143.6669  158.6651 C.ar    1  UNL1        0.0355
     25 C         143.1463  143.0815  157.3638 C.ar    1  UNL1        0.1026
     26 N         142.8625  143.7972  156.0764 N.ar    1  UNL1       -0.2164
     27 C         142.1163  145.0984  156.0904 C.ar    1  UNL1        0.2236
     28 F         141.8325  145.8141  154.8031 F       1  UNL1       -0.1832
     29 C         141.6539  145.6838  157.3918 C.ar    1  UNL1        0.0643
@<TRIPOS>BOND
     1    19    20    2
     2    20    18    1
     3    18    17    1
     4    17     1    1
     5     1     2   ar
     6     2     3   ar
     7     3     4   ar
     8     4     7    1
     9     7     8    2
    10     7     9    1
    11     9    10   ar
    12    10    11   ar
    13    11    12    1
    14    11    13   ar
    15    13    14   ar
    16    14    15   ar
    17    15    16    1
    18     4     5   ar
    19     5     6   ar
    20    20    21   am
    21    21    23    1
    22    23    24   ar
    23    24    25   ar
    24    25    26   ar
    25    26    27   ar
    26    27    28    1
    27    27    29   ar
    28     6     1   ar
    29    29    23   ar
    30    15     9   ar
    31    21    22    1
@<TRIPOS>MOLECULE
*****
 29 31 0 0 0
SMALL
GASTEIGER

@<TRIPOS>ATOM
      1 C         138.6886  143.8797  163.5451 C.ar    1  UNL1        0.1393
      2 C         139.7743  143.7705  164.5743 C.ar    1  UNL1        0.0370
      3 C         139.8867  142.5351  165.4176 C.ar    1  UNL1        0.0063
      4 C         138.9135  141.4089  165.2316 C.ar    1  UNL1        0.0392
      5 C         137.8278  141.5182  164.2023 C.ar    1  UNL1        0.0063
      6 C         137.7154  142.7535  163.3591 C.ar    1  UNL1        0.0370
      7 C         139.0259  140.1735  166.0749 C.2     1  UNL1        0.1961
      8 O         137.8447  139.2623  166.2316 O.2     1  UNL1       -0.2866
      9 C         140.3195  139.8493  166.7615 C.ar    1  UNL1        0.0460
     10 C         141.4775  139.3200  165.9685 C.ar    1  UNL1        0.0151
     11 C         142.7711  138.9958  166.6551 C.ar    1  UNL1        0.0578
     12 CL        143.9291  138.4664  165.8620 Cl      1  UNL1       -0.0822
     13 C         142.9068  139.2009  168.1348 C.ar    1  UNL1        0.0119
     14 C         141.7488  139.7302  168.9279 C.ar    1  UNL1        0.0077
     15 C         140.4552  140.0544  168.2413 C.ar    1  UNL1        0.0377
     16 BR        139.2973  140.5838  169.0344 Br      1  UNL1       -0.0489
     17 O         138.5762  145.1151  162.7018 O.3     1  UNL1       -0.4656
     18 C         139.7900  145.6675  162.0150 C.3     1  UNL1        0.2897
     19 O         139.3225  144.1589  159.9521 O.2     1  UNL1       -0.2707
     20 C         140.2091  145.1247  160.6809 C.2     1  UNL1        0.2707
     21 N         141.5147  145.5477  160.0757 N.am    1  UNL1       -0.2807
     22 H         142.0966  146.1815  160.5541 H       1  UNL1        0.1550
     23 C         141.9337  145.0048  158.7417 C.ar    1  UNL1        0.0558
     24 C         141.6772  145.7985  157.4949 C.ar    1  UNL1        0.0355
     25 C         142.0963  145.2556  156.1608 C.ar    1  UNL1        0.1026
     26 N         142.7718  143.9192  156.0735 N.ar    1  UNL1       -0.2164
     27 C         143.0283  143.1256  157.3202 C.ar    1  UNL1        0.2236
     28 F         143.7039  141.7892  157.2329 F       1  UNL1       -0.1832
     29 C         142.6093  143.6684  158.6543 C.ar    1  UNL1        0.0643
@<TRIPOS>BOND
     1    19    20    2
     2    20    18    1
     3    18    17    1
     4    17     1    1
     5     1     2   ar
     6     2     3   ar
     7     3     4   ar
     8     4     7    1
     9     7     8    2
    10     7     9    1
    11     9    10   ar
    12    10    11   ar
    13    11    12    1
    14    11    13   ar
    15    13    14   ar
    16    14    15   ar
    17    15    16    1
    18     4     5   ar
    19     5     6   ar
    20    20    21   am
    21    21    23    1
    22    23    24   ar
    23    24    25   ar
    24    25    26   ar
    25    26    27   ar
    26    27    28    1
    27    27    29   ar
    28     6     1   ar
    29    29    23   ar
    30    15     9   ar
    31    21    22    1
@<TRIPOS>MOLECULE
*****
 29 31 0 0 0
SMALL
GASTEIGER

@<TRIPOS>ATOM
      1 C         144.7969  141.3626  162.7349 C.ar    1  UNL1        0.1393
      2 C         144.7380  142.3378  163.8730 C.ar    1  UNL1        0.0370
      3 C         144.1122  141.9340  165.1750 C.ar    1  UNL1        0.0063
      4 C         143.5452  140.5550  165.3388 C.ar    1  UNL1        0.0392
      5 C         143.6040  139.5798  164.2007 C.ar    1  UNL1        0.0063
      6 C         144.2299  139.9836  162.8987 C.ar    1  UNL1        0.0370
      7 C         142.9193  140.1512  166.6409 C.2     1  UNL1        0.1961
      8 O         142.9477  138.7151  167.0732 O.2     1  UNL1       -0.2866
      9 C         142.2651  141.1835  167.5106 C.ar    1  UNL1        0.0460
     10 C         143.0003  141.7443  168.6916 C.ar    1  UNL1        0.0151
     11 C         142.3460  142.7766  169.5613 C.ar    1  UNL1        0.0578
     12 CL        143.0813  143.3374  170.7423 Cl      1  UNL1       -0.0822
     13 C         140.9565  143.2481  169.2499 C.ar    1  UNL1        0.0119
     14 C         140.2213  142.6873  168.0689 C.ar    1  UNL1        0.0077
     15 C         140.8755  141.6550  167.1992 C.ar    1  UNL1        0.0377
     16 BR        140.1402  141.0942  166.0181 Br      1  UNL1       -0.0489
     17 O         145.4228  141.7663  161.4328 O.3     1  UNL1       -0.4656
     18 C         144.6262  142.5429  160.4267 C.3     1  UNL1        0.2897
     19 O         142.0649  142.1423  160.2550 O.2     1  UNL1       -0.2707
     20 C         143.2215  142.9625  160.7445 C.2     1  UNL1        0.2707
     21 N         142.9735  144.2022  161.5517 N.am    1  UNL1       -0.2807
     22 H         143.7326  144.7405  161.8729 H       1  UNL1        0.1550
     23 C         141.5688  144.6216  161.8694 C.ar    1  UNL1        0.0558
     24 C         140.8555  145.5921  160.9753 C.ar    1  UNL1        0.0355
     25 C         139.4508  146.0116  161.2931 C.ar    1  UNL1        0.1026
     26 N         138.7595  145.4606  162.5049 N.ar    1  UNL1       -0.2164
     27 C         139.4728  144.4902  163.3989 C.ar    1  UNL1        0.2236
     28 F         138.7814  143.9392  164.6108 F       1  UNL1       -0.1832
     29 C         140.8775  144.0707  163.0812 C.ar    1  UNL1        0.0643
@<TRIPOS>BOND
     1    19    20    2
     2    20    18    1
     3    18    17    1
     4    17     1    1
     5     1     2   ar
     6     2     3   ar
     7     3     4   ar
     8     4     7    1
     9     7     8    2
    10     7     9    1
    11     9    10   ar
    12    10    11   ar
    13    11    12    1
    14    11    13   ar
    15    13    14   ar
    16    14    15   ar
    17    15    16    1
    18     4     5   ar
    19     5     6   ar
    20    20    21   am
    21    21    23    1
    22    23    24   ar
    23    24    25   ar
    24    25    26   ar
    25    26    27   ar
    26    27    28    1
    27    27    29   ar
    28     6     1   ar
    29    29    23   ar
    30    15     9   ar
    31    21    22    1
@<TRIPOS>MOLECULE
*****
 29 31 0 0 0
SMALL
GASTEIGER

@<TRIPOS>ATOM
      1 C         138.5897  139.5245  163.2349 C.ar    1  UNL1        0.1393
      2 C         138.8428  138.3145  164.0845 C.ar    1  UNL1        0.0370
      3 C         139.0708  138.4679  165.5591 C.ar    1  UNL1        0.0063
      4 C         139.0457  139.8312  166.1841 C.ar    1  UNL1        0.0392
      5 C         138.7926  141.0412  165.3345 C.ar    1  UNL1        0.0063
      6 C         138.5646  140.8878  163.8599 C.ar    1  UNL1        0.0370
      7 C         139.2737  139.9846  167.6588 C.2     1  UNL1        0.1961
      8 O         138.4393  139.2053  168.6317 O.2     1  UNL1       -0.2866
      9 C         140.3359  140.9172  168.1605 C.ar    1  UNL1        0.0460
     10 C         139.9513  142.1596  168.9078 C.ar    1  UNL1        0.0151
     11 C         141.0137  143.0922  169.4095 C.ar    1  UNL1        0.0578
     12 CL        140.6291  144.3346  170.1569 Cl      1  UNL1       -0.0822
     13 C         142.4606  142.7824  169.1638 C.ar    1  UNL1        0.0119
     14 C         142.8453  141.5401  168.4165 C.ar    1  UNL1        0.0077
     15 C         141.7830  140.6075  167.9148 C.ar    1  UNL1        0.0377
     16 BR        142.1676  139.3651  167.1674 Br      1  UNL1       -0.0489
     17 O         138.3617  139.3711  161.7603 O.3     1  UNL1       -0.4656
     18 C         139.4447  139.7428  160.7913 C.3     1  UNL1        0.2897
     19 O         141.7654  138.5946  161.0056 O.2     1  UNL1       -0.2707
     20 C         140.8749  139.7782  161.2423 C.2     1  UNL1        0.2707
     21 N         141.4145  140.9972  161.9299 N.am    1  UNL1       -0.2807
     22 H         140.8300  141.7741  162.0852 H       1  UNL1        0.1550
     23 C         142.8446  141.0326  162.3808 C.ar    1  UNL1        0.0558
     24 C         143.7898  142.0415  161.7987 C.ar    1  UNL1        0.0355
     25 C         145.2200  142.0769  162.2497 C.ar    1  UNL1        0.1026
     26 N         145.7050  141.1034  163.2827 N.ar    1  UNL1       -0.2164
     27 C         144.7598  140.0946  163.8648 C.ar    1  UNL1        0.2236
     28 F         145.2448  139.1211  164.8978 F       1  UNL1       -0.1832
     29 C         143.3296  140.0591  163.4139 C.ar    1  UNL1        0.0643
@<TRIPOS>BOND
     1    19    20    2
     2    20    18    1
     3    18    17    1
     4    17     1    1
     5     1     2   ar
     6     2     3   ar
     7     3     4   ar
     8     4     7    1
     9     7     8    2
    10     7     9    1
    11     9    10   ar
    12    10    11   ar
    13    11    12    1
    14    11    13   ar
    15    13    14   ar
    16    14    15   ar
    17    15    16    1
    18     4     5   ar
    19     5     6   ar
    20    20    21   am
    21    21    23    1
    22    23    24   ar
    23    24    25   ar
    24    25    26   ar
    25    26    27   ar
    26    27    28    1
    27    27    29   ar
    28     6     1   ar
    29    29    23   ar
    30    15     9   ar
    31    21    22    1
@<TRIPOS>MOLECULE
*****
 29 31 0 0 0
SMALL
GASTEIGER

@<TRIPOS>ATOM
      1 C         144.5532  142.1315  163.7944 C.ar    1  UNL1        0.1393
      2 C         143.8587  142.6777  165.0065 C.ar    1  UNL1        0.0370
      3 C         143.3487  141.7434  166.0633 C.ar    1  UNL1        0.0063
      4 C         143.5332  140.2629  165.9080 C.ar    1  UNL1        0.0392
      5 C         144.2276  139.7167  164.6958 C.ar    1  UNL1        0.0063
      6 C         144.7377  140.6510  163.6390 C.ar    1  UNL1        0.0370
      7 C         143.0231  139.3285  166.9649 C.2     1  UNL1        0.1961
      8 O         143.7434  138.0417  167.2394 O.2     1  UNL1       -0.2866
      9 C         141.7928  139.6810  167.7472 C.ar    1  UNL1        0.0460
     10 C         141.9148  140.1423  169.1693 C.ar    1  UNL1        0.0151
     11 C         140.6845  140.4948  169.9516 C.ar    1  UNL1        0.0578
     12 CL        140.8065  140.9561  171.3737 Cl      1  UNL1       -0.0822
     13 C         139.3321  140.3861  169.3119 C.ar    1  UNL1        0.0119
     14 C         139.2101  139.9248  167.8898 C.ar    1  UNL1        0.0077
     15 C         140.4404  139.5723  167.1075 C.ar    1  UNL1        0.0377
     16 BR        140.3183  139.1110  165.6854 Br      1  UNL1       -0.0489
     17 O         145.0633  143.0658  162.7375 O.3     1  UNL1       -0.4656
     18 C         144.1523  143.5219  161.6365 C.3     1  UNL1        0.2897
     19 O         141.9423  144.7911  162.1414 O.2     1  UNL1       -0.2707
     20 C         142.6662  143.5123  161.8404 C.2     1  UNL1        0.2707
     21 N         141.9041  142.2240  161.7431 N.am    1  UNL1       -0.2807
     22 H         142.3793  141.3847  161.5455 H       1  UNL1        0.1550
     23 C         140.4181  142.2145  161.9469 C.ar    1  UNL1        0.0558
     24 C         139.4988  142.3671  160.7714 C.ar    1  UNL1        0.0355
     25 C         138.0128  142.3576  160.9753 C.ar    1  UNL1        0.1026
     26 N         137.4460  142.1955  162.3545 N.ar    1  UNL1       -0.2164
     27 C         138.3652  142.0429  163.5300 C.ar    1  UNL1        0.2236
     28 F         137.7983  141.8808  164.9093 F       1  UNL1       -0.1832
     29 C         139.8513  142.0524  163.3262 C.ar    1  UNL1        0.0643
@<TRIPOS>BOND
     1    19    20    2
     2    20    18    1
     3    18    17    1
     4    17     1    1
     5     1     2   ar
     6     2     3   ar
     7     3     4   ar
     8     4     7    1
     9     7     8    2
    10     7     9    1
    11     9    10   ar
    12    10    11   ar
    13    11    12    1
    14    11    13   ar
    15    13    14   ar
    16    14    15   ar
    17    15    16    1
    18     4     5   ar
    19     5     6   ar
    20    20    21   am
    21    21    23    1
    22    23    24   ar
    23    24    25   ar
    24    25    26   ar
    25    26    27   ar
    26    27    28    1
    27    27    29   ar
    28     6     1   ar
    29    29    23   ar
    30    15     9   ar
    31    21    22    1
@<TRIPOS>MOLECULE
*****
 29 31 0 0 0
SMALL
GASTEIGER

@<TRIPOS>ATOM
      1 C         144.8640  141.2786  163.1743 C.ar    1  UNL1        0.1393
      2 C         144.3862  142.0197  164.3878 C.ar    1  UNL1        0.0370
      3 C         143.7917  141.2665  165.5407 C.ar    1  UNL1        0.0063
      4 C         143.6750  139.7723  165.4801 C.ar    1  UNL1        0.0392
      5 C         144.1528  139.0312  164.2667 C.ar    1  UNL1        0.0063
      6 C         144.7473  139.7844  163.1138 C.ar    1  UNL1        0.0370
      7 C         143.0804  139.0191  166.6331 C.2     1  UNL1        0.1961
      8 O         143.8568  137.9154  167.2882 O.2     1  UNL1       -0.2866
      9 C         141.7096  139.3697  167.1310 C.ar    1  UNL1        0.0460
     10 C         140.5219  139.2173  166.2277 C.ar    1  UNL1        0.0151
     11 C         139.1510  139.5679  166.7256 C.ar    1  UNL1        0.0578
     12 CL        137.9633  139.4156  165.8223 Cl      1  UNL1       -0.0822
     13 C         138.9680  140.0708  168.1269 C.ar    1  UNL1        0.0119
     14 C         140.1557  140.2232  169.0302 C.ar    1  UNL1        0.0077
     15 C         141.5265  139.8726  168.5323 C.ar    1  UNL1        0.0377
     16 BR        142.7143  140.0249  169.4357 Br      1  UNL1       -0.0489
     17 O         145.4586  142.0318  162.0213 O.3     1  UNL1       -0.4656
     18 C         144.5776  142.8550  161.1290 C.3     1  UNL1        0.2897
     19 O         143.4200  144.8334  162.3520 O.2     1  UNL1       -0.2707
     20 C         143.3381  143.4941  161.6816 C.2     1  UNL1        0.2707
     21 N         142.0168  142.7940  161.5636 N.am    1  UNL1       -0.2807
     22 H         141.9631  141.9149  161.1236 H       1  UNL1        0.1550
     23 C         140.7774  143.4331  162.1161 C.ar    1  UNL1        0.0558
     24 C         140.3027  144.7463  161.5682 C.ar    1  UNL1        0.0355
     25 C         139.0633  145.3855  162.1207 C.ar    1  UNL1        0.1026
     26 N         138.2986  144.7115  163.2212 N.ar    1  UNL1       -0.2164
     27 C         138.7733  143.3983  163.7691 C.ar    1  UNL1        0.2236
     28 F         138.0086  142.7244  164.8696 F       1  UNL1       -0.1832
     29 C         140.0128  142.7591  163.2166 C.ar    1  UNL1        0.0643
@<TRIPOS>BOND
     1    19    20    2
     2    20    18    1
     3    18    17    1
     4    17     1    1
     5     1     2   ar
     6     2     3   ar
     7     3     4   ar
     8     4     7    1
     9     7     8    2
    10     7     9    1
    11     9    10   ar
    12    10    11   ar
    13    11    12    1
    14    11    13   ar
    15    13    14   ar
    16    14    15   ar
    17    15    16    1
    18     4     5   ar
    19     5     6   ar
    20    20    21   am
    21    21    23    1
    22    23    24   ar
    23    24    25   ar
    24    25    26   ar
    25    26    27   ar
    26    27    28    1
    27    27    29   ar
    28     6     1   ar
    29    29    23   ar
    30    15     9   ar
    31    21    22    1
