@<TRIPOS>MOLECULE
*****
 34 37 0 0 0
SMALL
GASTEIGER

@<TRIPOS>ATOM
      1 C         141.5795  143.2194  161.6045 C.ar    1  UNL1        0.0537
      2 C         141.9672  142.2147  160.5604 C.ar    1  UNL1        0.0060
      3 C         142.4621  140.8595  160.9707 C.ar    1  UNL1        0.0173
      4 C         142.5693  140.5089  162.4251 C.ar    1  UNL1        0.0594
      5 C         142.1816  141.5135  163.4693 C.ar    1  UNL1        0.0130
      6 C         141.6868  142.8688  163.0590 C.ar    1  UNL1        0.0057
      7 C         142.3924  140.8874  164.8160 C.ar    1  UNL1       -0.0091
      8 C         142.9104  139.4957  164.6041 C.ar    1  UNL1        0.0331
      9 N         143.0197  139.2618  163.1265 N.ar    1  UNL1       -0.3289
     10 C         143.4958  138.0019  162.4661 C.3     1  UNL1        0.1301
     11 C         143.2156  138.6212  165.7839 C.3     1  UNL1        0.0435
     12 C         143.0028  139.1385  167.1758 C.3     1  UNL1        0.0066
     13 C         142.4849  140.5301  167.3877 C.3     1  UNL1        0.0049
     14 C         142.1797  141.4046  166.2078 C.3     1  UNL1        0.0275
     15 C         142.2721  141.0474  168.7795 C.3     1  UNL1        0.0053
     16 C         142.9421  142.3154  169.2190 C.3     1  UNL1        0.0322
     17 C         142.7293  142.8327  170.6108 C.3     1  UNL1        0.1422
     18 O         141.8466  142.0818  171.5633 O.3     1  UNL1       -0.3538
     19 C         141.1766  140.8137  171.1238 C.3     1  UNL1        0.1422
     20 C         141.3893  140.2965  169.7320 C.3     1  UNL1        0.0322
     21 C         139.4920  146.5943  161.5606 C.3     1  UNL1        0.1152
     22 N         139.9868  145.2391  161.9709 N.am    1  UNL1       -0.2743
     23 C         141.0847  144.5747  161.1942 C.2     1  UNL1        0.2491
     24 O         141.6876  145.2656  160.0072 O.2     1  UNL1       -0.2699
     25 C         139.3838  144.5482  163.1580 C.3     1  UNL1        0.0943
     26 C         137.9805  144.0230  163.0873 C.3     1  UNL1        0.0311
     27 C         137.7113  142.6834  162.4682 C.3     1  UNL1        0.0868
     28 C         138.3328  141.4492  163.0515 C.2     1  UNL1        0.2233
     29 O         139.0981  140.5067  162.1705 O.2     1  UNL1       -0.2751
     30 N         138.1891  141.1573  164.5158 N.am    1  UNL1       -0.2917
     31 H         137.6868  141.7759  165.0940 H       1  UNL1        0.1504
     32 C         138.8106  139.9230  165.0991 C.3     1  UNL1        0.1969
     33 C         138.0846  139.1460  166.1570 C.1     1  UNL1        0.0952
     34 N         137.3587  138.3689  167.2149 N.1     1  UNL1       -0.1941
@<TRIPOS>BOND
     1    21    22    1
     2    22    25    1
     3    25    26    1
     4    26    27    1
     5    27    28    1
     6    28    29    2
     7    28    30   am
     8    30    32    1
     9    32    33    1
    10    33    34    3
    11    22    23   am
    12    23    24    2
    13    23     1    1
    14     1     2   ar
    15     2     3   ar
    16     3     4   ar
    17     4     5   ar
    18     5     6   ar
    19     5     7   ar
    20     7     8   ar
    21     8     9   ar
    22     9    10    1
    23     8    11    1
    24    11    12    1
    25    12    13    1
    26    13    15    1
    27    15    16    1
    28    16    17    1
    29    17    18    1
    30    18    19    1
    31    19    20    1
    32    13    14    1
    33     6     1   ar
    34    14     7    1
    35     9     4   ar
    36    20    15    1
    37    30    31    1
@<TRIPOS>MOLECULE
*****
 34 37 0 0 0
SMALL
GASTEIGER

@<TRIPOS>ATOM
      1 C         140.3143  142.3966  160.7486 C.ar    1  UNL1        0.0537
      2 C         139.7673  141.1657  160.0888 C.ar    1  UNL1        0.0060
      3 C         139.4111  139.9664  160.9164 C.ar    1  UNL1        0.0173
      4 C         139.6020  139.9982  162.4038 C.ar    1  UNL1        0.0594
      5 C         140.1491  141.2291  163.0637 C.ar    1  UNL1        0.0130
      6 C         140.5052  142.4284  162.2360 C.ar    1  UNL1        0.0057
      7 C         140.2274  140.9685  164.5388 C.ar    1  UNL1       -0.0091
      8 C         139.7287  139.5764  164.7906 C.ar    1  UNL1        0.0331
      9 N         139.3422  138.9767  163.4712 N.ar    1  UNL1       -0.3289
     10 C         138.7924  137.5977  163.2566 C.3     1  UNL1        0.1301
     11 C         139.6910  139.0347  166.1888 C.3     1  UNL1        0.0435
     12 C         140.1520  139.8851  167.3353 C.3     1  UNL1        0.0066
     13 C         140.6506  141.2772  167.0835 C.3     1  UNL1        0.0049
     14 C         140.6883  141.8188  165.6852 C.3     1  UNL1        0.0275
     15 C         141.1116  142.1276  168.2299 C.3     1  UNL1        0.0053
     16 C         140.2078  143.1858  168.7897 C.3     1  UNL1        0.0322
     17 C         140.6688  144.0362  169.9361 C.3     1  UNL1        0.1422
     18 O         142.0336  143.8283  170.5229 O.3     1  UNL1       -0.3538
     19 C         142.9374  142.7701  169.9631 C.3     1  UNL1        0.1422
     20 C         142.4764  141.9197  168.8167 C.3     1  UNL1        0.0322
     21 C         142.3192  144.8245  158.3328 C.3     1  UNL1        0.1152
     22 N         141.9630  143.6252  159.1604 N.am    1  UNL1       -0.2743
     23 C         140.6705  143.5959  159.9210 C.2     1  UNL1        0.2491
     24 O         139.7342  144.7658  159.8540 O.2     1  UNL1       -0.2699
     25 C         142.8994  142.4552  159.2274 C.3     1  UNL1        0.0943
     26 C         144.2442  142.6070  159.8742 C.3     1  UNL1        0.0311
     27 C         144.3477  142.7552  161.3633 C.3     1  UNL1        0.0868
     28 C         144.7164  141.5738  162.2108 C.2     1  UNL1        0.2233
     29 O         145.9879  141.5890  163.0064 O.2     1  UNL1       -0.2751
     30 N         143.8135  140.3771  162.2627 N.am    1  UNL1       -0.2917
     31 H         142.9789  140.3672  161.7405 H       1  UNL1        0.1504
     32 C         144.1821  139.1956  163.1102 C.3     1  UNL1        0.1969
     33 C         143.7906  139.1596  164.5578 C.1     1  UNL1        0.0952
     34 N         143.3991  139.1236  166.0053 N.1     1  UNL1       -0.1941
@<TRIPOS>BOND
     1    21    22    1
     2    22    25    1
     3    25    26    1
     4    26    27    1
     5    27    28    1
     6    28    29    2
     7    28    30   am
     8    30    32    1
     9    32    33    1
    10    33    34    3
    11    22    23   am
    12    23    24    2
    13    23     1    1
    14     1     2   ar
    15     2     3   ar
    16     3     4   ar
    17     4     5   ar
    18     5     6   ar
    19     5     7   ar
    20     7     8   ar
    21     8     9   ar
    22     9    10    1
    23     8    11    1
    24    11    12    1
    25    12    13    1
    26    13    15    1
    27    15    16    1
    28    16    17    1
    29    17    18    1
    30    18    19    1
    31    19    20    1
    32    13    14    1
    33     6     1   ar
    34    14     7    1
    35     9     4   ar
    36    20    15    1
    37    30    31    1
@<TRIPOS>MOLECULE
*****
 34 37 0 0 0
SMALL
GASTEIGER

@<TRIPOS>ATOM
      1 C         140.1513  141.8301  160.8005 C.ar    1  UNL1        0.0537
      2 C         141.4281  141.9528  160.0229 C.ar    1  UNL1        0.0060
      3 C         142.7336  142.1098  160.7446 C.ar    1  UNL1        0.0173
      4 C         142.7624  142.1442  162.2439 C.ar    1  UNL1        0.0594
      5 C         141.4857  142.0216  163.0215 C.ar    1  UNL1        0.0130
      6 C         140.1801  141.8646  162.2998 C.ar    1  UNL1        0.0057
      7 C         141.8238  142.0888  164.4814 C.ar    1  UNL1       -0.0091
      8 C         143.3095  142.2530  164.6060 C.ar    1  UNL1        0.0331
      9 N         143.8896  142.2873  163.2231 N.ar    1  UNL1       -0.3289
     10 C         145.3420  142.4380  162.8797 C.3     1  UNL1        0.1301
     11 C         143.9423  142.3501  165.9624 C.3     1  UNL1        0.0435
     12 C         143.0892  142.2831  167.1944 C.3     1  UNL1        0.0066
     13 C         141.6034  142.1189  167.0699 C.3     1  UNL1        0.0049
     14 C         140.9707  142.0218  165.7133 C.3     1  UNL1        0.0275
     15 C         140.7503  142.0518  168.3019 C.3     1  UNL1        0.0053
     16 C         139.9740  140.8058  168.6097 C.3     1  UNL1        0.0322
     17 C         139.1210  140.7387  169.8417 C.3     1  UNL1        0.1422
     18 O         139.0442  141.9177  170.7659 O.3     1  UNL1       -0.3538
     19 C         139.8205  143.1638  170.4581 C.3     1  UNL1        0.1422
     20 C         140.6736  143.2308  169.2261 C.3     1  UNL1        0.0322
     21 C         136.8362  140.1915  159.3601 C.3     1  UNL1        0.1152
     22 N         138.1417  140.3486  160.0818 N.am    1  UNL1       -0.2743
     23 C         138.8457  141.6731  160.0789 C.2     1  UNL1        0.2491
     24 O         138.2441  142.8406  159.3543 O.2     1  UNL1       -0.2699
     25 C         138.7433  139.1810  160.8064 C.3     1  UNL1        0.0943
     26 C         138.0421  138.5940  161.9953 C.3     1  UNL1        0.0311
     27 C         138.7588  137.6208  162.8838 C.3     1  UNL1        0.0868
     28 C         140.2361  137.7556  163.1060 C.2     1  UNL1        0.2233
     29 O         141.1993  137.2387  162.0788 O.2     1  UNL1       -0.2751
     30 N         140.7502  138.4073  164.3553 N.am    1  UNL1       -0.2917
     31 H         140.1180  138.7465  165.0295 H       1  UNL1        0.1504
     32 C         142.2276  138.5421  164.5776 C.3     1  UNL1        0.1969
     33 C         142.7708  138.6343  165.9727 C.1     1  UNL1        0.0952
     34 N         143.3140  138.7265  167.3678 N.1     1  UNL1       -0.1941
@<TRIPOS>BOND
     1    21    22    1
     2    22    25    1
     3    25    26    1
     4    26    27    1
     5    27    28    1
     6    28    29    2
     7    28    30   am
     8    30    32    1
     9    32    33    1
    10    33    34    3
    11    22    23   am
    12    23    24    2
    13    23     1    1
    14     1     2   ar
    15     2     3   ar
    16     3     4   ar
    17     4     5   ar
    18     5     6   ar
    19     5     7   ar
    20     7     8   ar
    21     8     9   ar
    22     9    10    1
    23     8    11    1
    24    11    12    1
    25    12    13    1
    26    13    15    1
    27    15    16    1
    28    16    17    1
    29    17    18    1
    30    18    19    1
    31    19    20    1
    32    13    14    1
    33     6     1   ar
    34    14     7    1
    35     9     4   ar
    36    20    15    1
    37    30    31    1
@<TRIPOS>MOLECULE
*****
 34 37 0 0 0
SMALL
GASTEIGER

@<TRIPOS>ATOM
      1 C         140.0316  142.9748  160.9104 C.ar    1  UNL1        0.0537
      2 C         139.4873  141.7796  160.1857 C.ar    1  UNL1        0.0060
      3 C         139.1799  140.5204  160.9407 C.ar    1  UNL1        0.0173
      4 C         139.4168  140.4565  162.4205 C.ar    1  UNL1        0.0594
      5 C         139.9610  141.6517  163.1452 C.ar    1  UNL1        0.0130
      6 C         140.2685  142.9108  162.3902 C.ar    1  UNL1        0.0057
      7 C         140.0905  141.2945  164.5964 C.ar    1  UNL1       -0.0091
      8 C         139.6263  139.8786  164.7685 C.ar    1  UNL1        0.0331
      9 N         139.2099  139.3607  163.4237 N.ar    1  UNL1       -0.3289
     10 C         138.6796  137.9880  163.1331 C.3     1  UNL1        0.1301
     11 C         139.6426  139.2439  166.1274 C.3     1  UNL1        0.0435
     12 C         140.1233  140.0250  167.3143 C.3     1  UNL1        0.0066
     13 C         140.5875  141.4410  167.1422 C.3     1  UNL1        0.0049
     14 C         140.5711  142.0757  165.7832 C.3     1  UNL1        0.0275
     15 C         141.0682  142.2221  168.3291 C.3     1  UNL1        0.0053
     16 C         140.2152  143.3139  168.9038 C.3     1  UNL1        0.0322
     17 C         140.6958  144.0951  170.0908 C.3     1  UNL1        0.1422
     18 O         142.0296  143.7844  170.7030 O.3     1  UNL1       -0.3538
     19 C         142.8826  142.6926  170.1283 C.3     1  UNL1        0.1422
     20 C         142.4020  141.9115  168.9413 C.3     1  UNL1        0.0322
     21 C         141.7918  145.5264  158.4324 C.3     1  UNL1        0.1152
     22 N         141.4844  144.2673  159.1874 N.am    1  UNL1       -0.2743
     23 C         140.3390  144.2339  160.1554 C.2     1  UNL1        0.2491
     24 O         139.5011  145.4596  160.3683 O.2     1  UNL1       -0.2699
     25 C         142.3224  143.0415  158.9744 C.3     1  UNL1        0.0943
     26 C         143.7433  143.0118  159.4539 C.3     1  UNL1        0.0311
     27 C         144.0768  142.3796  160.7727 C.3     1  UNL1        0.0868
     28 C         143.7373  143.0873  162.0509 C.2     1  UNL1        0.2233
     29 O         143.4225  144.5538  162.0355 O.2     1  UNL1       -0.2751
     30 N         143.7127  142.3284  163.3446 N.am    1  UNL1       -0.2917
     31 H         143.9193  141.3659  163.3547 H       1  UNL1        0.1504
     32 C         143.3731  143.0361  164.6229 C.3     1  UNL1        0.1969
     33 C         144.4579  143.6790  165.4352 C.1     1  UNL1        0.0952
     34 N         145.5427  144.3218  166.2475 N.1     1  UNL1       -0.1941
@<TRIPOS>BOND
     1    21    22    1
     2    22    25    1
     3    25    26    1
     4    26    27    1
     5    27    28    1
     6    28    29    2
     7    28    30   am
     8    30    32    1
     9    32    33    1
    10    33    34    3
    11    22    23   am
    12    23    24    2
    13    23     1    1
    14     1     2   ar
    15     2     3   ar
    16     3     4   ar
    17     4     5   ar
    18     5     6   ar
    19     5     7   ar
    20     7     8   ar
    21     8     9   ar
    22     9    10    1
    23     8    11    1
    24    11    12    1
    25    12    13    1
    26    13    15    1
    27    15    16    1
    28    16    17    1
    29    17    18    1
    30    18    19    1
    31    19    20    1
    32    13    14    1
    33     6     1   ar
    34    14     7    1
    35     9     4   ar
    36    20    15    1
    37    30    31    1
@<TRIPOS>MOLECULE
*****
 34 37 0 0 0
SMALL
GASTEIGER

@<TRIPOS>ATOM
      1 C         140.5062  140.5017  159.9223 C.ar    1  UNL1        0.0537
      2 C         140.0994  141.7440  159.1868 C.ar    1  UNL1        0.0060
      3 C         139.7963  143.0008  159.9476 C.ar    1  UNL1        0.0173
      4 C         139.9000  143.0152  161.4439 C.ar    1  UNL1        0.0594
      5 C         140.3068  141.7729  162.1794 C.ar    1  UNL1        0.0130
      6 C         140.6099  140.5161  161.4187 C.ar    1  UNL1        0.0057
      7 C         140.3231  142.0869  163.6461 C.ar    1  UNL1       -0.0091
      8 C         139.9263  143.5233  163.8170 C.ar    1  UNL1        0.0331
      9 N         139.6648  144.0970  162.4559 N.ar    1  UNL1       -0.3289
     10 C         139.2424  145.5053  162.1590 C.3     1  UNL1        0.1301
     11 C         139.8543  144.1233  165.1898 C.3     1  UNL1        0.0435
     12 C         140.1792  143.2869  166.3918 C.3     1  UNL1        0.0066
     13 C         140.5759  141.8504  166.2210 C.3     1  UNL1        0.0049
     14 C         140.6479  141.2505  164.8481 C.3     1  UNL1        0.0275
     15 C         140.9008  141.0140  167.4230 C.3     1  UNL1        0.0053
     16 C         142.1952  140.2584  167.4834 C.3     1  UNL1        0.0322
     17 C         142.5200  139.4220  168.6854 C.3     1  UNL1        0.1422
     18 O         141.5503  139.3411  169.8271 O.3     1  UNL1       -0.3538
     19 C         140.2559  140.0966  169.7667 C.3     1  UNL1        0.1422
     20 C         139.9311  140.9331  168.5647 C.3     1  UNL1        0.0322
     21 C         142.5285  137.6565  158.0343 C.3     1  UNL1        0.1152
     22 N         142.2254  138.9132  158.7951 N.am    1  UNL1       -0.2743
     23 C         140.8093  139.2450  159.1616 C.2     1  UNL1        0.2491
     24 O         139.6962  138.3200  158.7674 O.2     1  UNL1       -0.2699
     25 C         143.3386  139.8382  159.1893 C.3     1  UNL1        0.0943
     26 C         144.0999  139.5971  160.4590 C.3     1  UNL1        0.0311
     27 C         143.9868  138.2769  161.1622 C.3     1  UNL1        0.0868
     28 C         143.1182  138.1467  162.3780 C.2     1  UNL1        0.2233
     29 O         143.4476  138.9185  163.6213 O.2     1  UNL1       -0.2751
     30 N         141.9200  137.2447  162.3506 N.am    1  UNL1       -0.2917
     31 H         141.7038  136.7382  161.5346 H       1  UNL1        0.1504
     32 C         141.0512  137.1145  163.5665 C.3     1  UNL1        0.1969
     33 C         139.7541  137.8636  163.6452 C.1     1  UNL1        0.0952
     34 N         138.4569  138.6126  163.7239 N.1     1  UNL1       -0.1941
@<TRIPOS>BOND
     1    21    22    1
     2    22    25    1
     3    25    26    1
     4    26    27    1
     5    27    28    1
     6    28    29    2
     7    28    30   am
     8    30    32    1
     9    32    33    1
    10    33    34    3
    11    22    23   am
    12    23    24    2
    13    23     1    1
    14     1     2   ar
    15     2     3   ar
    16     3     4   ar
    17     4     5   ar
    18     5     6   ar
    19     5     7   ar
    20     7     8   ar
    21     8     9   ar
    22     9    10    1
    23     8    11    1
    24    11    12    1
    25    12    13    1
    26    13    15    1
    27    15    16    1
    28    16    17    1
    29    17    18    1
    30    18    19    1
    31    19    20    1
    32    13    14    1
    33     6     1   ar
    34    14     7    1
    35     9     4   ar
    36    20    15    1
    37    30    31    1
@<TRIPOS>MOLECULE
*****
 34 37 0 0 0
SMALL
GASTEIGER

@<TRIPOS>ATOM
      1 C         141.9202  141.1361  160.4238 C.ar    1  UNL1        0.0537
      2 C         141.4815  142.2409  159.5089 C.ar    1  UNL1        0.0060
      3 C         140.7879  143.4473  160.0687 C.ar    1  UNL1        0.0173
      4 C         140.5328  143.5490  161.5433 C.ar    1  UNL1        0.0594
      5 C         140.9714  142.4443  162.4582 C.ar    1  UNL1        0.0130
      6 C         141.6651  141.2378  161.8985 C.ar    1  UNL1        0.0057
      7 C         140.5860  142.8211  163.8581 C.ar    1  UNL1       -0.0091
      8 C         139.9092  144.1588  163.8082 C.ar    1  UNL1        0.0331
      9 N         139.8763  144.6087  162.3776 N.ar    1  UNL1       -0.3289
     10 C         139.2899  145.8927  161.8704 C.3     1  UNL1        0.1301
     11 C         139.4103  144.7945  165.0719 C.3     1  UNL1        0.0435
     12 C         139.5883  144.0924  166.3855 C.3     1  UNL1        0.0066
     13 C         140.2651  142.7547  166.4353 C.3     1  UNL1        0.0049
     14 C         140.7640  142.1191  165.1715 C.3     1  UNL1        0.0275
     15 C         140.4430  142.0526  167.7489 C.3     1  UNL1        0.0053
     16 C         140.2296  142.7983  169.0328 C.3     1  UNL1        0.0322
     17 C         140.4075  142.0962  170.3464 C.3     1  UNL1        0.1422
     18 O         140.7989  140.6484  170.3760 O.3     1  UNL1       -0.3538
     19 C         141.0123  139.9028  169.0921 C.3     1  UNL1        0.1422
     20 C         140.8344  140.6048  167.7785 C.3     1  UNL1        0.0322
     21 C         142.5073  137.6265  158.6666 C.3     1  UNL1        0.1152
     22 N         141.8136  138.8330  159.2263 N.am    1  UNL1       -0.2743
     23 C         142.6139  139.9297  159.8641 C.2     1  UNL1        0.2491
     24 O         144.1078  139.8199  159.9422 O.2     1  UNL1       -0.2699
     25 C         140.3197  138.9427  159.1482 C.3     1  UNL1        0.0943
     26 C         139.4597  138.1646  160.0995 C.3     1  UNL1        0.0311
     27 C         138.9008  138.8308  161.3218 C.3     1  UNL1        0.0868
     28 C         139.3019  138.3533  162.6859 C.2     1  UNL1        0.2233
     29 O         140.2296  137.1832  162.8283 O.2     1  UNL1       -0.2751
     30 N         138.7753  139.0459  163.9078 N.am    1  UNL1       -0.2917
     31 H         138.1664  139.8138  163.8144 H       1  UNL1        0.1504
     32 C         139.1764  138.5684  165.2721 C.3     1  UNL1        0.1969
     33 C         138.1258  138.2513  166.2947 C.1     1  UNL1        0.0952
     34 N         137.0752  137.9343  167.3172 N.1     1  UNL1       -0.1941
@<TRIPOS>BOND
     1    21    22    1
     2    22    25    1
     3    25    26    1
     4    26    27    1
     5    27    28    1
     6    28    29    2
     7    28    30   am
     8    30    32    1
     9    32    33    1
    10    33    34    3
    11    22    23   am
    12    23    24    2
    13    23     1    1
    14     1     2   ar
    15     2     3   ar
    16     3     4   ar
    17     4     5   ar
    18     5     6   ar
    19     5     7   ar
    20     7     8   ar
    21     8     9   ar
    22     9    10    1
    23     8    11    1
    24    11    12    1
    25    12    13    1
    26    13    15    1
    27    15    16    1
    28    16    17    1
    29    17    18    1
    30    18    19    1
    31    19    20    1
    32    13    14    1
    33     6     1   ar
    34    14     7    1
    35     9     4   ar
    36    20    15    1
    37    30    31    1
@<TRIPOS>MOLECULE
*****
 34 37 0 0 0
SMALL
GASTEIGER

@<TRIPOS>ATOM
      1 C         142.0728  141.4150  160.0648 C.ar    1  UNL1        0.0537
      2 C         141.7154  142.5533  159.1556 C.ar    1  UNL1        0.0060
      3 C         141.0181  143.7621  159.7056 C.ar    1  UNL1        0.0173
      4 C         140.6781  143.8326  161.1648 C.ar    1  UNL1        0.0594
      5 C         141.0354  142.6944  162.0740 C.ar    1  UNL1        0.0130
      6 C         141.7328  141.4856  161.5240 C.ar    1  UNL1        0.0057
      7 C         140.5763  143.0451  163.4583 C.ar    1  UNL1       -0.0091
      8 C         139.9351  144.4001  163.4046 C.ar    1  UNL1        0.0331
      9 N         139.9981  144.8868  161.9871 N.ar    1  UNL1       -0.3289
     10 C         139.4732  146.1976  161.4809 C.3     1  UNL1        0.1301
     11 C         139.3769  145.0158  164.6533 C.3     1  UNL1        0.0435
     12 C         139.4597  144.2764  165.9557 C.3     1  UNL1        0.0066
     13 C         140.1009  142.9214  166.0095 C.3     1  UNL1        0.0049
     14 C         140.6591  142.3058  164.7607 C.3     1  UNL1        0.0275
     15 C         140.1837  142.1819  167.3120 C.3     1  UNL1        0.0053
     16 C         140.5032  142.9233  168.5762 C.3     1  UNL1        0.0322
     17 C         140.5860  142.1838  169.8787 C.3     1  UNL1        0.1422
     18 O         140.3494  140.7030  169.9169 O.3     1  UNL1       -0.3538
     19 C         140.0299  139.9617  168.6526 C.3     1  UNL1        0.1422
     20 C         139.9471  140.7011  167.3501 C.3     1  UNL1        0.0322
     21 C         142.7377  137.6907  158.8659 C.3     1  UNL1        0.1152
     22 N         142.0403  138.8995  159.4159 N.am    1  UNL1       -0.2743
     23 C         142.7701  140.2062  159.5148 C.2     1  UNL1        0.2491
     24 O         144.1973  140.3042  159.0636 O.2     1  UNL1       -0.2699
     25 C         140.6131  138.8015  159.8671 C.3     1  UNL1        0.0943
     26 C         140.2993  138.4700  161.2959 C.3     1  UNL1        0.0311
     27 C         141.2252  137.5902  162.0826 C.3     1  UNL1        0.0868
     28 C         142.2127  138.2002  163.0326 C.2     1  UNL1        0.2233
     29 O         143.5974  138.5348  162.5627 O.2     1  UNL1       -0.2751
     30 N         141.8156  138.4756  164.4526 N.am    1  UNL1       -0.2917
     31 H         140.9068  138.2560  164.7610 H       1  UNL1        0.1504
     32 C         142.8032  139.0856  165.4027 C.3     1  UNL1        0.1969
     33 C         143.6643  138.2040  166.2578 C.1     1  UNL1        0.0952
     34 N         144.5253  137.3224  167.1129 N.1     1  UNL1       -0.1941
@<TRIPOS>BOND
     1    21    22    1
     2    22    25    1
     3    25    26    1
     4    26    27    1
     5    27    28    1
     6    28    29    2
     7    28    30   am
     8    30    32    1
     9    32    33    1
    10    33    34    3
    11    22    23   am
    12    23    24    2
    13    23     1    1
    14     1     2   ar
    15     2     3   ar
    16     3     4   ar
    17     4     5   ar
    18     5     6   ar
    19     5     7   ar
    20     7     8   ar
    21     8     9   ar
    22     9    10    1
    23     8    11    1
    24    11    12    1
    25    12    13    1
    26    13    15    1
    27    15    16    1
    28    16    17    1
    29    17    18    1
    30    18    19    1
    31    19    20    1
    32    13    14    1
    33     6     1   ar
    34    14     7    1
    35     9     4   ar
    36    20    15    1
    37    30    31    1
@<TRIPOS>MOLECULE
*****
 34 37 0 0 0
SMALL
GASTEIGER

@<TRIPOS>ATOM
      1 C         140.4147  140.4469  160.0533 C.ar    1  UNL1        0.0537
      2 C         139.9920  141.6875  159.3240 C.ar    1  UNL1        0.0060
      3 C         139.6899  142.9415  160.0896 C.ar    1  UNL1        0.0173
      4 C         139.8107  142.9549  161.5847 C.ar    1  UNL1        0.0594
      5 C         140.2335  141.7143  162.3140 C.ar    1  UNL1        0.0130
      6 C         140.5355  140.4603  161.5484 C.ar    1  UNL1        0.0057
      7 C         140.2646  142.0267  163.7809 C.ar    1  UNL1       -0.0091
      8 C         139.8610  143.4605  163.9580 C.ar    1  UNL1        0.0331
      9 N         139.5805  144.0341  162.6006 N.ar    1  UNL1       -0.3289
     10 C         139.1460  145.4402  162.3103 C.3     1  UNL1        0.1301
     11 C         139.8011  144.0585  165.3322 C.3     1  UNL1        0.0435
     12 C         140.1448  143.2227  166.5295 C.3     1  UNL1        0.0066
     13 C         140.5484  141.7890  166.3524 C.3     1  UNL1        0.0049
     14 C         140.6083  141.1910  164.9780 C.3     1  UNL1        0.0275
     15 C         140.8920  140.9532  167.5496 C.3     1  UNL1        0.0053
     16 C         142.1783  140.1821  167.5818 C.3     1  UNL1        0.0322
     17 C         142.5219  139.3463  168.7790 C.3     1  UNL1        0.1422
     18 O         141.5793  139.2816  169.9441 O.3     1  UNL1       -0.3538
     19 C         140.2931  140.0527  169.9120 C.3     1  UNL1        0.1422
     20 C         139.9494  140.8885  168.7147 C.3     1  UNL1        0.0322
     21 C         142.4270  137.4282  158.4446 C.3     1  UNL1        0.1152
     22 N         142.1250  138.6822  159.2102 N.am    1  UNL1       -0.2743
     23 C         140.7168  139.1929  159.2877 C.2     1  UNL1        0.2491
     24 O         139.6106  138.4496  158.5994 O.2     1  UNL1       -0.2699
     25 C         143.2313  139.4255  159.8985 C.3     1  UNL1        0.0943
     26 C         144.2027  138.6862  160.7701 C.3     1  UNL1        0.0311
     27 C         143.8700  138.4238  162.2091 C.3     1  UNL1        0.0868
     28 C         144.3362  139.3740  163.2720 C.2     1  UNL1        0.2233
     29 O         144.0164  139.1036  164.7124 O.2     1  UNL1       -0.2751
     30 N         145.1221  140.5946  162.8945 N.am    1  UNL1       -0.2917
     31 H         145.3319  140.7720  161.9492 H       1  UNL1        0.1504
     32 C         145.5883  141.5448  163.9575 C.3     1  UNL1        0.1969
     33 C         144.6790  142.6363  164.4389 C.1     1  UNL1        0.0952
     34 N         143.7698  143.7278  164.9204 N.1     1  UNL1       -0.1941
@<TRIPOS>BOND
     1    21    22    1
     2    22    25    1
     3    25    26    1
     4    26    27    1
     5    27    28    1
     6    28    29    2
     7    28    30   am
     8    30    32    1
     9    32    33    1
    10    33    34    3
    11    22    23   am
    12    23    24    2
    13    23     1    1
    14     1     2   ar
    15     2     3   ar
    16     3     4   ar
    17     4     5   ar
    18     5     6   ar
    19     5     7   ar
    20     7     8   ar
    21     8     9   ar
    22     9    10    1
    23     8    11    1
    24    11    12    1
    25    12    13    1
    26    13    15    1
    27    15    16    1
    28    16    17    1
    29    17    18    1
    30    18    19    1
    31    19    20    1
    32    13    14    1
    33     6     1   ar
    34    14     7    1
    35     9     4   ar
    36    20    15    1
    37    30    31    1
@<TRIPOS>MOLECULE
*****
 34 37 0 0 0
SMALL
GASTEIGER

@<TRIPOS>ATOM
      1 C         142.6370  140.5168  161.5234 C.ar    1  UNL1        0.0537
      2 C         141.8438  139.6245  160.6155 C.ar    1  UNL1        0.0060
      3 C         140.6405  138.8991  161.1406 C.ar    1  UNL1        0.0173
      4 C         140.2303  139.0661  162.5736 C.ar    1  UNL1        0.0594
      5 C         141.0235  139.9585  163.4816 C.ar    1  UNL1        0.0130
      6 C         142.2268  140.6838  162.9565 C.ar    1  UNL1        0.0057
      7 C         140.3826  139.9277  164.8376 C.ar    1  UNL1       -0.0091
      8 C         139.1933  139.0163  164.7675 C.ar    1  UNL1        0.0331
      9 N         139.0992  138.4838  163.3683 N.ar    1  UNL1       -0.3289
     10 C         138.0569  137.5355  162.8541 C.3     1  UNL1        0.1301
     11 C         138.3497  138.7889  165.9867 C.3     1  UNL1        0.0435
     12 C         138.6955  139.4731  167.2761 C.3     1  UNL1        0.0066
     13 C         139.8847  140.3845  167.3462 C.3     1  UNL1        0.0049
     14 C         140.7283  140.6118  166.1269 C.3     1  UNL1        0.0275
     15 C         140.2304  141.0686  168.6356 C.3     1  UNL1        0.0053
     16 C         140.4026  142.5582  168.6715 C.3     1  UNL1        0.0322
     17 C         140.7483  143.2424  169.9609 C.3     1  UNL1        0.1422
     18 O         140.9219  142.4368  171.2144 O.3     1  UNL1       -0.3538
     19 C         140.7497  140.9471  171.1784 C.3     1  UNL1        0.1422
     20 C         140.4040  140.2630  169.8890 C.3     1  UNL1        0.0322
     21 C         144.8904  142.9788  159.3761 C.3     1  UNL1        0.1152
     22 N         143.6870  142.2535  159.9012 N.am    1  UNL1       -0.2743
     23 C         143.8404  141.2422  160.9983 C.2     1  UNL1        0.2491
     24 O         145.1972  140.9563  161.5704 O.2     1  UNL1       -0.2699
     25 C         142.3301  142.5394  159.3291 C.3     1  UNL1        0.0943
     26 C         141.6611  143.8530  159.6060 C.3     1  UNL1        0.0311
     27 C         141.7714  144.4793  160.9646 C.3     1  UNL1        0.0868
     28 C         140.6883  144.2643  161.9798 C.2     1  UNL1        0.2233
     29 O         141.0452  143.9374  163.3995 O.2     1  UNL1       -0.2751
     30 N         139.2483  144.3764  161.5752 N.am    1  UNL1       -0.2917
     31 H         139.0141  144.5910  160.6433 H       1  UNL1        0.1504
     32 C         138.1651  144.1615  162.5903 C.3     1  UNL1        0.1969
     33 C         137.6192  142.7841  162.8244 C.1     1  UNL1        0.0952
     34 N         137.0732  141.4068  163.0585 N.1     1  UNL1       -0.1941
@<TRIPOS>BOND
     1    21    22    1
     2    22    25    1
     3    25    26    1
     4    26    27    1
     5    27    28    1
     6    28    29    2
     7    28    30   am
     8    30    32    1
     9    32    33    1
    10    33    34    3
    11    22    23   am
    12    23    24    2
    13    23     1    1
    14     1     2   ar
    15     2     3   ar
    16     3     4   ar
    17     4     5   ar
    18     5     6   ar
    19     5     7   ar
    20     7     8   ar
    21     8     9   ar
    22     9    10    1
    23     8    11    1
    24    11    12    1
    25    12    13    1
    26    13    15    1
    27    15    16    1
    28    16    17    1
    29    17    18    1
    30    18    19    1
    31    19    20    1
    32    13    14    1
    33     6     1   ar
    34    14     7    1
    35     9     4   ar
    36    20    15    1
    37    30    31    1
