@<TRIPOS>MOLECULE
*****
 37 41 0 0 0
SMALL
GASTEIGER

@<TRIPOS>ATOM
      1 C         138.7969  141.1660  164.7391 C.3     1  UNL1        0.0704
      2 C         138.1573  139.8095  164.7659 C.3     1  UNL1        0.0100
      3 C         138.4961  139.1631  166.0765 C.3     1  UNL1        0.0162
      4 C         139.3450  140.1202  166.8596 C.3     1  UNL1        0.0544
      5 C         139.5309  141.3580  166.0331 C.3     1  UNL1        0.0243
      6 C         138.1691  141.2618  163.3803 C.2     1  UNL1        0.2248
      7 O         136.9231  142.0738  163.1853 O.2     1  UNL1       -0.2749
      8 N         138.7873  140.5456  162.2163 N.am    1  UNL1       -0.2760
      9 C         140.0334  139.7335  162.4112 C.3     1  UNL1        0.1149
     10 C         140.6516  139.0173  161.2473 C.3     1  UNL1        0.1137
     11 N         140.0238  139.1130  159.8883 N.pl3   1  UNL1       -0.2897
     12 C         138.7778  139.9251  159.6935 C.3     1  UNL1        0.1137
     13 C         138.1595  140.6413  160.8574 C.3     1  UNL1        0.1149
     14 C         140.6421  138.3968  158.7244 C.ar    1  UNL1        0.1317
     15 C         139.8072  138.0515  157.5270 C.ar    1  UNL1        0.0382
     16 C         140.4255  137.3352  156.3631 C.ar    1  UNL1        0.0757
     17 C         141.8785  136.9644  156.3965 C.ar    1  UNL1        0.0246
     18 C         142.7134  137.3097  157.5939 C.ar    1  UNL1        0.1002
     19 N         142.0950  138.0259  158.7579 N.ar    1  UNL1       -0.2292
     20 C         139.5907  136.9899  155.1656 C.3     1  UNL1        0.4187
     21 F         138.7559  136.6445  153.9681 F       1  UNL1       -0.1659
     22 F         140.5338  135.8727  154.8304 F       1  UNL1       -0.1659
     23 F         138.6476  138.1070  155.5008 F       1  UNL1       -0.1659
     24 C         140.6692  142.7210  163.8302 C.3     1  UNL1        0.0005
     25 C         139.3052  142.5426  164.4283 C.3     1  UNL1        0.0082
     26 C         138.4497  143.7407  164.7155 C.3     1  UNL1        0.0005
     27 N         139.9091  139.8813  168.2289 N.3     1  UNL1       -0.2995
     28 H         140.4107  138.9940  168.1900 H       1  UNL1        0.1232
     29 C         140.8454  140.8817  168.8393 C.3     1  UNL1        0.0587
     30 C         140.4163  141.6774  170.0363 C.3     1  UNL1        0.0441
     31 C         141.3525  142.6778  170.6468 C.3     1  UNL1        0.0038
     32 C         142.7178  142.8825  170.0603 C.3     1  UNL1        0.0003
     33 C         143.1468  142.0868  168.8633 C.3     1  UNL1        0.0038
     34 C         142.2106  141.0864  168.2528 C.3     1  UNL1        0.0441
     35 C         141.2744  140.0861  167.6423 C.3     1  UNL1        0.1434
     36 O         139.9091  139.8813  168.2289 O.3     1  UNL1       -0.3537
     37 C         139.4800  140.6770  169.4258 C.3     1  UNL1        0.1434
@<TRIPOS>BOND
     1    24    25    1
     2    25    26    1
     3     1    25    1
     4     1     6    1
     5     6     7    2
     6     6     8   am
     7     8     9    1
     8     9    10    1
     9    10    11    1
    10    11    14    1
    11    14    15   ar
    12    15    16   ar
    13    16    20    1
    14    20    21    1
    15    20    22    1
    16    20    23    1
    17    16    17   ar
    18    17    18   ar
    19    18    19   ar
    20    11    12    1
    21    12    13    1
    22     1     2    1
    23     2     3    1
    24     3     4    1
    25     4    27    1
    26    27    29    1
    27    29    30    1
    28    30    31    1
    29    31    32    1
    30    32    33    1
    31    33    34    1
    32    34    35    1
    33    35    36    1
    34    36    37    1
    35     4     5    1
    36     5     1    1
    37    13     8    1
    38    34    29    1
    39    19    14   ar
    40    37    30    1
    41    27    28    1
@<TRIPOS>MOLECULE
*****
 37 41 0 0 0
SMALL
GASTEIGER

@<TRIPOS>ATOM
      1 C         140.7162  139.3595  164.2593 C.3     1  UNL1        0.0704
      2 C         141.0453  140.7328  163.7536 C.3     1  UNL1        0.0100
      3 C         141.9230  141.4026  164.7689 C.3     1  UNL1        0.0162
      4 C         142.1363  140.4434  165.9022 C.3     1  UNL1        0.0544
      5 C         141.3904  139.1807  165.5872 C.3     1  UNL1        0.0243
      6 C         139.9392  139.2464  162.9813 C.2     1  UNL1        0.2248
      7 O         138.4566  139.4742  162.9822 O.2     1  UNL1       -0.2749
      8 N         140.6447  138.9053  161.7022 N.am    1  UNL1       -0.2760
      9 C         142.1274  138.6774  161.7013 C.3     1  UNL1        0.1149
     10 C         142.8329  138.3363  160.4223 C.3     1  UNL1        0.1137
     11 N         142.0559  138.2232  159.1442 N.pl3   1  UNL1       -0.2897
     12 C         140.5733  138.4511  159.1452 C.3     1  UNL1        0.1137
     13 C         139.8677  138.7921  160.4242 C.3     1  UNL1        0.1149
     14 C         142.7614  137.8821  157.8652 C.ar    1  UNL1        0.1317
     15 C         142.8783  136.4509  157.4317 C.ar    1  UNL1        0.0382
     16 C         143.5838  136.1098  156.1528 C.ar    1  UNL1        0.0757
     17 C         144.1726  137.2000  155.3072 C.ar    1  UNL1        0.0246
     18 C         144.0557  138.6313  155.7407 C.ar    1  UNL1        0.1002
     19 N         143.3501  138.9722  157.0197 N.ar    1  UNL1       -0.2292
     20 C         143.7007  134.6785  155.7192 C.3     1  UNL1        0.4187
     21 F         143.8176  133.2473  155.2858 F       1  UNL1       -0.1659
     22 F         144.1646  134.2999  157.0945 F       1  UNL1       -0.1659
     23 F         143.2368  135.0572  154.3440 F       1  UNL1       -0.1659
     24 C         138.8568  137.7365  165.0707 C.3     1  UNL1        0.0005
     25 C         140.2246  137.9626  164.4979 C.3     1  UNL1        0.0082
     26 C         141.1007  136.7918  164.1638 C.3     1  UNL1        0.0005
     27 N         142.9522  140.7015  167.1342 N.3     1  UNL1       -0.2995
     28 H         143.5767  141.4780  166.9164 H       1  UNL1        0.1232
     29 C         142.2715  141.0427  168.4267 C.3     1  UNL1        0.0587
     30 C         142.2256  142.4662  168.8971 C.3     1  UNL1        0.0441
     31 C         141.5450  142.8074  170.1895 C.3     1  UNL1        0.0038
     32 C         140.9103  141.7251  171.0114 C.3     1  UNL1        0.0003
     33 C         140.9562  140.3015  170.5410 C.3     1  UNL1        0.0038
     34 C         141.6368  139.9603  169.2486 C.3     1  UNL1        0.0441
     35 C         142.3174  139.6191  167.9562 C.3     1  UNL1        0.1434
     36 O         142.9522  140.7015  167.1342 O.3     1  UNL1       -0.3537
     37 C         142.9062  142.1251  167.6047 C.3     1  UNL1        0.1434
@<TRIPOS>BOND
     1    24    25    1
     2    25    26    1
     3     1    25    1
     4     1     6    1
     5     6     7    2
     6     6     8   am
     7     8     9    1
     8     9    10    1
     9    10    11    1
    10    11    14    1
    11    14    15   ar
    12    15    16   ar
    13    16    20    1
    14    20    21    1
    15    20    22    1
    16    20    23    1
    17    16    17   ar
    18    17    18   ar
    19    18    19   ar
    20    11    12    1
    21    12    13    1
    22     1     2    1
    23     2     3    1
    24     3     4    1
    25     4    27    1
    26    27    29    1
    27    29    30    1
    28    30    31    1
    29    31    32    1
    30    32    33    1
    31    33    34    1
    32    34    35    1
    33    35    36    1
    34    36    37    1
    35     4     5    1
    36     5     1    1
    37    13     8    1
    38    34    29    1
    39    19    14   ar
    40    37    30    1
    41    27    28    1
@<TRIPOS>MOLECULE
*****
 37 41 0 0 0
SMALL
GASTEIGER

@<TRIPOS>ATOM
      1 C         141.3477  138.7125  164.8317 C.3     1  UNL1        0.0704
      2 C         142.8036  138.5019  164.5385 C.3     1  UNL1        0.0100
      3 C         143.5760  138.7983  165.7898 C.3     1  UNL1        0.0162
      4 C         142.5974  139.1920  166.8563 C.3     1  UNL1        0.0544
      5 C         141.2203  139.1389  166.2641 C.3     1  UNL1        0.0243
      6 C         141.1627  138.3125  163.3980 C.2     1  UNL1        0.2248
      7 O         140.7744  136.9046  163.0561 O.2     1  UNL1       -0.2749
      8 N         141.3661  139.3205  162.3058 N.am    1  UNL1       -0.2760
      9 C         141.7545  140.7285  162.6476 C.3     1  UNL1        0.1149
     10 C         141.9579  141.7365  161.5556 C.3     1  UNL1        0.1137
     11 N         141.7729  141.3366  160.1218 N.pl3   1  UNL1       -0.2897
     12 C         141.3845  139.9286  159.7801 C.3     1  UNL1        0.1137
     13 C         141.1811  138.9206  160.8721 C.3     1  UNL1        0.1149
     14 C         141.9763  142.3446  159.0297 C.ar    1  UNL1        0.1317
     15 C         141.1033  143.5625  158.9612 C.ar    1  UNL1        0.0382
     16 C         141.3067  144.5705  157.8691 C.ar    1  UNL1        0.0757
     17 C         142.3830  144.3606  156.8457 C.ar    1  UNL1        0.0246
     18 C         143.2560  143.1427  156.9142 C.ar    1  UNL1        0.1002
     19 N         143.0525  142.1348  158.0063 N.ar    1  UNL1       -0.2292
     20 C         140.4337  145.7884  157.8005 C.3     1  UNL1        0.4187
     21 F         139.5607  147.0063  157.7320 F       1  UNL1       -0.1659
     22 F         139.9387  145.5118  159.1892 F       1  UNL1       -0.1659
     23 F         140.9287  146.0650  156.4119 F       1  UNL1       -0.1659
     24 C         139.2154  140.1808  164.6158 C.3     1  UNL1        0.0005
     25 C         139.8532  138.8394  164.8252 C.3     1  UNL1        0.0082
     26 C         138.9963  137.6250  165.0280 C.3     1  UNL1        0.0005
     27 N         142.9365  139.5719  168.2672 N.3     1  UNL1       -0.2995
     28 H         143.8881  139.9390  168.2527 H       1  UNL1        0.1232
     29 C         142.0954  140.5779  168.9958 C.3     1  UNL1        0.0587
     30 C         141.8045  141.9084  168.3671 C.3     1  UNL1        0.0441
     31 C         140.9635  142.9143  169.0956 C.3     1  UNL1        0.0038
     32 C         140.4133  142.5897  170.4527 C.3     1  UNL1        0.0003
     33 C         140.7042  141.2592  171.0814 C.3     1  UNL1        0.0038
     34 C         141.5452  140.2533  170.3529 C.3     1  UNL1        0.0441
     35 C         142.3863  139.2474  169.6244 C.3     1  UNL1        0.1434
     36 O         142.9365  139.5719  168.2672 O.3     1  UNL1       -0.3537
     37 C         142.6456  140.9024  167.6385 C.3     1  UNL1        0.1434
@<TRIPOS>BOND
     1    24    25    1
     2    25    26    1
     3     1    25    1
     4     1     6    1
     5     6     7    2
     6     6     8   am
     7     8     9    1
     8     9    10    1
     9    10    11    1
    10    11    14    1
    11    14    15   ar
    12    15    16   ar
    13    16    20    1
    14    20    21    1
    15    20    22    1
    16    20    23    1
    17    16    17   ar
    18    17    18   ar
    19    18    19   ar
    20    11    12    1
    21    12    13    1
    22     1     2    1
    23     2     3    1
    24     3     4    1
    25     4    27    1
    26    27    29    1
    27    29    30    1
    28    30    31    1
    29    31    32    1
    30    32    33    1
    31    33    34    1
    32    34    35    1
    33    35    36    1
    34    36    37    1
    35     4     5    1
    36     5     1    1
    37    13     8    1
    38    34    29    1
    39    19    14   ar
    40    37    30    1
    41    27    28    1
@<TRIPOS>MOLECULE
*****
 37 41 0 0 0
SMALL
GASTEIGER

@<TRIPOS>ATOM
      1 C         143.6165  140.8169  164.9307 C.3     1  UNL1        0.0704
      2 C         143.9295  139.3500  164.9289 C.3     1  UNL1        0.0100
      3 C         143.3636  138.7537  166.1836 C.3     1  UNL1        0.0162
      4 C         142.7008  139.8522  166.9608 C.3     1  UNL1        0.0544
      5 C         142.8571  141.1273  166.1865 C.3     1  UNL1        0.0243
      6 C         144.3421  140.8131  163.6180 C.2     1  UNL1        0.2248
      7 O         145.7024  141.4360  163.5111 O.2     1  UNL1       -0.2749
      8 N         143.7075  140.1862  162.4120 N.am    1  UNL1       -0.2760
      9 C         142.3471  139.5632  162.5188 C.3     1  UNL1        0.1149
     10 C         141.7125  138.9364  161.3129 C.3     1  UNL1        0.1137
     11 N         142.4381  138.9325  160.0001 N.pl3   1  UNL1       -0.2897
     12 C         143.7985  139.5555  159.8933 C.3     1  UNL1        0.1137
     13 C         144.4331  140.1823  161.0993 C.3     1  UNL1        0.1149
     14 C         141.8035  138.3057  158.7942 C.ar    1  UNL1        0.1317
     15 C         142.6267  137.4616  157.8668 C.ar    1  UNL1        0.0382
     16 C         141.9920  136.8348  156.6609 C.ar    1  UNL1        0.0757
     17 C         140.5342  137.0520  156.3823 C.ar    1  UNL1        0.0246
     18 C         139.7110  137.8960  157.3096 C.ar    1  UNL1        0.1002
     19 N         140.3458  138.5229  158.5156 N.ar    1  UNL1       -0.2292
     20 C         142.8152  135.9907  155.7335 C.3     1  UNL1        0.4187
     21 F         143.6383  135.1466  154.8061 F       1  UNL1       -0.1659
     22 F         141.5743  135.2824  155.2768 F       1  UNL1       -0.1659
     23 F         144.0560  136.6990  156.1902 F       1  UNL1       -0.1659
     24 C         142.4531  142.7516  163.6449 C.3     1  UNL1        0.0005
     25 C         143.4550  142.2831  164.6581 C.3     1  UNL1        0.0082
     26 C         144.2955  143.2807  165.3986 C.3     1  UNL1        0.0005
     27 N         142.0040  139.7019  168.2807 N.3     1  UNL1       -0.2995
     28 H         142.6660  139.2530  168.9137 H       1  UNL1        0.1232
     29 C         141.4769  140.9124  168.9926 C.3     1  UNL1        0.0587
     30 C         140.0284  140.9859  169.3753 C.3     1  UNL1        0.0441
     31 C         139.5012  142.1963  170.0872 C.3     1  UNL1        0.0038
     32 C         140.4225  143.3333  170.4164 C.3     1  UNL1        0.0003
     33 C         141.8710  143.2598  170.0337 C.3     1  UNL1        0.0038
     34 C         142.3982  142.0494  169.3218 C.3     1  UNL1        0.0441
     35 C         142.9254  140.8389  168.6099 C.3     1  UNL1        0.1434
     36 O         142.0040  139.7019  168.2807 O.3     1  UNL1       -0.3537
     37 C         140.5556  139.7753  168.6634 C.3     1  UNL1        0.1434
@<TRIPOS>BOND
     1    24    25    1
     2    25    26    1
     3     1    25    1
     4     1     6    1
     5     6     7    2
     6     6     8   am
     7     8     9    1
     8     9    10    1
     9    10    11    1
    10    11    14    1
    11    14    15   ar
    12    15    16   ar
    13    16    20    1
    14    20    21    1
    15    20    22    1
    16    20    23    1
    17    16    17   ar
    18    17    18   ar
    19    18    19   ar
    20    11    12    1
    21    12    13    1
    22     1     2    1
    23     2     3    1
    24     3     4    1
    25     4    27    1
    26    27    29    1
    27    29    30    1
    28    30    31    1
    29    31    32    1
    30    32    33    1
    31    33    34    1
    32    34    35    1
    33    35    36    1
    34    36    37    1
    35     4     5    1
    36     5     1    1
    37    13     8    1
    38    34    29    1
    39    19    14   ar
    40    37    30    1
    41    27    28    1
@<TRIPOS>MOLECULE
*****
 37 41 0 0 0
SMALL
GASTEIGER

@<TRIPOS>ATOM
      1 C         138.8071  141.1753  164.7188 C.3     1  UNL1        0.0704
      2 C         138.2884  139.7684  164.6770 C.3     1  UNL1        0.0100
      3 C         138.6006  139.1201  165.9932 C.3     1  UNL1        0.0162
      4 C         139.3121  140.1263  166.8484 C.3     1  UNL1        0.0544
      5 C         139.4398  141.3964  166.0607 C.3     1  UNL1        0.0243
      6 C         138.2589  141.2515  163.3247 C.2     1  UNL1        0.2248
      7 O         136.8767  141.7850  163.0904 O.2     1  UNL1       -0.2749
      8 N         139.0929  140.7944  162.1647 N.am    1  UNL1       -0.2760
      9 C         140.4752  140.2609  162.3989 C.3     1  UNL1        0.1149
     10 C         141.3092  139.8037  161.2390 C.3     1  UNL1        0.1137
     11 N         140.7609  139.8800  159.8448 N.pl3   1  UNL1       -0.2897
     12 C         139.3787  140.4135  159.6107 C.3     1  UNL1        0.1137
     13 C         138.5447  140.8706  160.7706 C.3     1  UNL1        0.1149
     14 C         141.5949  139.4228  158.6849 C.ar    1  UNL1        0.1317
     15 C         141.4456  138.0263  158.1582 C.ar    1  UNL1        0.0382
     16 C         142.2796  137.5691  156.9983 C.ar    1  UNL1        0.0757
     17 C         143.2629  138.5085  156.3651 C.ar    1  UNL1        0.0246
     18 C         143.4122  139.9050  156.8918 C.ar    1  UNL1        0.1002
     19 N         142.5781  140.3621  158.0518 N.ar    1  UNL1       -0.2292
     20 C         142.1304  136.1726  156.4714 C.3     1  UNL1        0.4187
     21 F         141.9812  134.7761  155.9447 F       1  UNL1       -0.1659
     22 F         143.5855  135.9186  156.7327 F       1  UNL1       -0.1659
     23 F         140.6754  136.4266  156.2102 F       1  UNL1       -0.1659
     24 C         138.1627  143.6607  164.3223 C.3     1  UNL1        0.0005
     25 C         139.2112  142.5980  164.4691 C.3     1  UNL1        0.0082
     26 C         140.6636  142.9583  164.3662 C.3     1  UNL1        0.0005
     27 N         139.8089  139.9017  168.2458 N.3     1  UNL1       -0.2995
     28 H         140.2538  138.9839  168.2562 H       1  UNL1        0.1232
     29 C         140.7841  140.8627  168.8587 C.3     1  UNL1        0.0587
     30 C         142.1306  141.0677  168.2302 C.3     1  UNL1        0.0441
     31 C         143.1057  142.0287  168.8430 C.3     1  UNL1        0.0038
     32 C         142.7344  142.7846  170.0842 C.3     1  UNL1        0.0003
     33 C         141.3879  142.5796  170.7126 C.3     1  UNL1        0.0038
     34 C         140.4127  141.6186  170.0999 C.3     1  UNL1        0.0441
     35 C         139.4376  140.6577  169.4871 C.3     1  UNL1        0.1434
     36 O         139.8089  139.9017  168.2458 O.3     1  UNL1       -0.3537
     37 C         141.1553  140.1067  167.6174 C.3     1  UNL1        0.1434
@<TRIPOS>BOND
     1    24    25    1
     2    25    26    1
     3     1    25    1
     4     1     6    1
     5     6     7    2
     6     6     8   am
     7     8     9    1
     8     9    10    1
     9    10    11    1
    10    11    14    1
    11    14    15   ar
    12    15    16   ar
    13    16    20    1
    14    20    21    1
    15    20    22    1
    16    20    23    1
    17    16    17   ar
    18    17    18   ar
    19    18    19   ar
    20    11    12    1
    21    12    13    1
    22     1     2    1
    23     2     3    1
    24     3     4    1
    25     4    27    1
    26    27    29    1
    27    29    30    1
    28    30    31    1
    29    31    32    1
    30    32    33    1
    31    33    34    1
    32    34    35    1
    33    35    36    1
    34    36    37    1
    35     4     5    1
    36     5     1    1
    37    13     8    1
    38    34    29    1
    39    19    14   ar
    40    37    30    1
    41    27    28    1
@<TRIPOS>MOLECULE
*****
 37 41 0 0 0
SMALL
GASTEIGER

@<TRIPOS>ATOM
      1 C         142.8693  141.9782  164.2380 C.3     1  UNL1        0.0704
      2 C         141.4988  141.7025  163.6941 C.3     1  UNL1        0.0100
      3 C         140.8224  140.7293  164.6136 C.3     1  UNL1        0.0162
      4 C         141.7748  140.4035  165.7257 C.3     1  UNL1        0.0544
      5 C         143.0398  141.1753  165.4935 C.3     1  UNL1        0.0243
      6 C         142.9905  142.8779  163.0440 C.2     1  UNL1        0.2248
      7 O         142.7714  144.3544  163.1922 O.2     1  UNL1       -0.2749
      8 N         143.3307  142.3012  161.7017 N.am    1  UNL1       -0.2760
      9 C         143.5498  140.8247  161.5535 C.3     1  UNL1        0.1149
     10 C         143.8901  140.2480  160.2112 C.3     1  UNL1        0.1137
     11 N         144.0113  141.1477  159.0172 N.pl3   1  UNL1       -0.2897
     12 C         143.7922  142.6242  159.1655 C.3     1  UNL1        0.1137
     13 C         143.4520  143.2010  160.5077 C.3     1  UNL1        0.1149
     14 C         144.3515  140.5710  157.6750 C.ar    1  UNL1        0.1317
     15 C         145.4407  141.1875  156.8481 C.ar    1  UNL1        0.0382
     16 C         145.7810  140.6108  155.5059 C.ar    1  UNL1        0.0757
     17 C         145.0321  139.4176  154.9905 C.ar    1  UNL1        0.0246
     18 C         143.9429  138.8012  155.8174 C.ar    1  UNL1        0.1002
     19 N         143.6027  139.3780  157.1596 N.ar    1  UNL1       -0.2292
     20 C         146.8702  141.2272  154.6789 C.3     1  UNL1        0.4187
     21 F         147.9594  141.8436  153.8521 F       1  UNL1       -0.1659
     22 F         147.5263  141.7409  155.9262 F       1  UNL1       -0.1659
     23 F         146.2141  140.7134  153.4318 F       1  UNL1       -0.1659
     24 C         144.4883  143.6467  165.3975 C.3     1  UNL1        0.0005
     25 C         144.2651  142.4419  164.5323 C.3     1  UNL1        0.0082
     26 C         145.4376  141.7009  163.9613 C.3     1  UNL1        0.0005
     27 N         141.5088  139.4698  166.8691 N.3     1  UNL1       -0.2995
     28 H         142.3178  138.8525  166.9395 H       1  UNL1        0.1232
     29 C         141.2617  140.0182  168.2433 C.3     1  UNL1        0.0587
     30 C         139.8895  140.4855  168.6288 C.3     1  UNL1        0.0441
     31 C         139.6424  141.0338  170.0029 C.3     1  UNL1        0.0038
     32 C         140.7675  141.1149  170.9915 C.3     1  UNL1        0.0003
     33 C         142.1397  140.6475  170.6061 C.3     1  UNL1        0.0038
     34 C         142.3869  140.0992  169.2320 C.3     1  UNL1        0.0441
     35 C         142.6340  139.5508  167.8579 C.3     1  UNL1        0.1434
     36 O         141.5088  139.4698  166.8691 O.3     1  UNL1       -0.3537
     37 C         140.1366  139.9371  167.2546 C.3     1  UNL1        0.1434
@<TRIPOS>BOND
     1    24    25    1
     2    25    26    1
     3     1    25    1
     4     1     6    1
     5     6     7    2
     6     6     8   am
     7     8     9    1
     8     9    10    1
     9    10    11    1
    10    11    14    1
    11    14    15   ar
    12    15    16   ar
    13    16    20    1
    14    20    21    1
    15    20    22    1
    16    20    23    1
    17    16    17   ar
    18    17    18   ar
    19    18    19   ar
    20    11    12    1
    21    12    13    1
    22     1     2    1
    23     2     3    1
    24     3     4    1
    25     4    27    1
    26    27    29    1
    27    29    30    1
    28    30    31    1
    29    31    32    1
    30    32    33    1
    31    33    34    1
    32    34    35    1
    33    35    36    1
    34    36    37    1
    35     4     5    1
    36     5     1    1
    37    13     8    1
    38    34    29    1
    39    19    14   ar
    40    37    30    1
    41    27    28    1
@<TRIPOS>MOLECULE
*****
 37 41 0 0 0
SMALL
GASTEIGER

@<TRIPOS>ATOM
      1 C         142.0407  136.5257  156.0295 C.3     1  UNL1        0.0704
      2 C         143.4514  136.1526  156.3768 C.3     1  UNL1        0.0100
      3 C         143.5466  134.6557  156.3840 C.3     1  UNL1        0.0162
      4 C         142.1947  134.1035  156.0411 C.3     1  UNL1        0.0544
      5 C         141.2640  135.2593  155.8220 C.3     1  UNL1        0.0243
      6 C         142.5444  137.9314  156.1706 C.2     1  UNL1        0.2248
      7 O         142.6456  138.8165  154.9638 O.2     1  UNL1       -0.2749
      8 N         142.9470  138.4523  157.5184 N.am    1  UNL1       -0.2760
      9 C         142.8458  137.5672  158.7253 C.3     1  UNL1        0.1149
     10 C         143.2484  138.0879  160.0732 C.3     1  UNL1        0.1137
     11 N         143.7521  139.4938  160.2142 N.pl3   1  UNL1       -0.2897
     12 C         143.8533  140.3788  159.0073 C.3     1  UNL1        0.1137
     13 C         143.4507  139.8580  157.6595 C.3     1  UNL1        0.1149
     14 C         144.1547  140.0145  161.5621 C.ar    1  UNL1        0.1317
     15 C         143.9583  139.1658  162.7832 C.ar    1  UNL1        0.0382
     16 C         144.3609  139.6866  164.1311 C.ar    1  UNL1        0.0757
     17 C         144.9598  141.0560  164.2578 C.ar    1  UNL1        0.0246
     18 C         145.1562  141.9047  163.0367 C.ar    1  UNL1        0.1002
     19 N         144.7536  141.3838  161.6888 N.ar    1  UNL1       -0.2292
     20 C         144.1645  138.8379  165.3523 C.3     1  UNL1        0.4187
     21 F         143.9681  137.9893  166.5735 F       1  UNL1       -0.1659
     22 F         142.6837  139.0623  165.2701 F       1  UNL1       -0.1659
     23 F         145.6453  138.6136  165.4345 F       1  UNL1       -0.1659
     24 C         140.2464  137.2471  154.2946 C.3     1  UNL1        0.0005
     25 C         140.7352  137.1926  155.7117 C.3     1  UNL1        0.0082
     26 C         139.9186  137.8049  156.8109 C.3     1  UNL1        0.0005
     27 N         141.8365  132.6507  155.9357 N.3     1  UNL1       -0.2995
     28 H         140.9524  132.6014  155.4294 H       1  UNL1        0.1232
     29 C         142.7751  131.6937  155.2625 C.3     1  UNL1        0.0587
     30 C         142.6603  131.4428  153.7881 C.3     1  UNL1        0.0441
     31 C         143.5988  130.4858  153.1148 C.3     1  UNL1        0.0038
     32 C         144.6522  129.7798  153.9160 C.3     1  UNL1        0.0003
     33 C         144.7670  130.0307  155.3904 C.3     1  UNL1        0.0038
     34 C         143.8285  130.9877  156.0636 C.3     1  UNL1        0.0441
     35 C         142.8899  131.9446  156.7369 C.3     1  UNL1        0.1434
     36 O         141.8365  132.6507  155.9357 O.3     1  UNL1       -0.3537
     37 C         141.7217  132.3998  154.4613 C.3     1  UNL1        0.1434
@<TRIPOS>BOND
     1    24    25    1
     2    25    26    1
     3     1    25    1
     4     1     6    1
     5     6     7    2
     6     6     8   am
     7     8     9    1
     8     9    10    1
     9    10    11    1
    10    11    14    1
    11    14    15   ar
    12    15    16   ar
    13    16    20    1
    14    20    21    1
    15    20    22    1
    16    20    23    1
    17    16    17   ar
    18    17    18   ar
    19    18    19   ar
    20    11    12    1
    21    12    13    1
    22     1     2    1
    23     2     3    1
    24     3     4    1
    25     4    27    1
    26    27    29    1
    27    29    30    1
    28    30    31    1
    29    31    32    1
    30    32    33    1
    31    33    34    1
    32    34    35    1
    33    35    36    1
    34    36    37    1
    35     4     5    1
    36     5     1    1
    37    13     8    1
    38    34    29    1
    39    19    14   ar
    40    37    30    1
    41    27    28    1
@<TRIPOS>MOLECULE
*****
 37 41 0 0 0
SMALL
GASTEIGER

@<TRIPOS>ATOM
      1 C         142.5224  142.6681  163.7941 C.3     1  UNL1        0.0704
      2 C         141.7378  141.5285  163.2148 C.3     1  UNL1        0.0100
      3 C         140.8092  141.0181  164.2766 C.3     1  UNL1        0.0162
      4 C         141.0200  141.8422  165.5120 C.3     1  UNL1        0.0544
      5 C         142.0788  142.8619  165.2138 C.3     1  UNL1        0.0243
      6 C         143.1578  142.7145  162.4362 C.2     1  UNL1        0.2248
      7 O         144.5914  142.3079  162.2646 O.2     1  UNL1       -0.2749
      8 N         142.3596  143.1675  161.2497 N.am    1  UNL1       -0.2760
      9 C         140.9260  143.5741  161.4212 C.3     1  UNL1        0.1149
     10 C         140.1277  144.0270  160.2348 C.3     1  UNL1        0.1137
     11 N         140.7632  144.0734  158.8768 N.pl3   1  UNL1       -0.2897
     12 C         142.1968  143.6668  158.7053 C.3     1  UNL1        0.1137
     13 C         142.9950  143.2138  159.8918 C.3     1  UNL1        0.1149
     14 C         139.9649  144.5264  157.6903 C.ar    1  UNL1        0.1317
     15 C         139.9645  145.9733  157.2949 C.ar    1  UNL1        0.0382
     16 C         139.1663  146.4263  156.1084 C.ar    1  UNL1        0.0757
     17 C         138.3685  145.4323  155.3174 C.ar    1  UNL1        0.0246
     18 C         138.3690  143.9854  155.7129 C.ar    1  UNL1        0.1002
     19 N         139.1672  143.5325  156.8994 N.ar    1  UNL1       -0.2292
     20 C         139.1658  147.8733  155.7129 C.3     1  UNL1        0.4187
     21 F         139.1653  149.3202  155.3175 F       1  UNL1       -0.1659
     22 F         138.6887  148.2480  157.0847 F       1  UNL1       -0.1659
     23 F         139.6429  147.4985  154.3412 F       1  UNL1       -0.1659
     24 C         144.5714  143.6437  165.0589 C.3     1  UNL1        0.0005
     25 C         143.4399  143.8174  164.0895 C.3     1  UNL1        0.0082
     26 C         143.2260  145.1403  163.4157 C.3     1  UNL1        0.0005
     27 N         140.2986  141.6757  166.8166 N.3     1  UNL1       -0.2995
     28 H         139.5453  141.0078  166.6534 H       1  UNL1        0.1232
     29 C         141.0426  141.2015  168.0298 C.3     1  UNL1        0.0587
     30 C         142.2999  141.8983  168.4585 C.3     1  UNL1        0.0441
     31 C         143.0438  141.4241  169.6716 C.3     1  UNL1        0.0038
     32 C         142.5304  140.2532  170.4561 C.3     1  UNL1        0.0003
     33 C         141.2731  139.5565  170.0274 C.3     1  UNL1        0.0038
     34 C         140.5292  140.0307  168.8143 C.3     1  UNL1        0.0441
     35 C         139.7852  140.5048  167.6012 C.3     1  UNL1        0.1434
     36 O         140.2986  141.6757  166.8166 O.3     1  UNL1       -0.3537
     37 C         141.5560  142.3725  167.2453 C.3     1  UNL1        0.1434
@<TRIPOS>BOND
     1    24    25    1
     2    25    26    1
     3     1    25    1
     4     1     6    1
     5     6     7    2
     6     6     8   am
     7     8     9    1
     8     9    10    1
     9    10    11    1
    10    11    14    1
    11    14    15   ar
    12    15    16   ar
    13    16    20    1
    14    20    21    1
    15    20    22    1
    16    20    23    1
    17    16    17   ar
    18    17    18   ar
    19    18    19   ar
    20    11    12    1
    21    12    13    1
    22     1     2    1
    23     2     3    1
    24     3     4    1
    25     4    27    1
    26    27    29    1
    27    29    30    1
    28    30    31    1
    29    31    32    1
    30    32    33    1
    31    33    34    1
    32    34    35    1
    33    35    36    1
    34    36    37    1
    35     4     5    1
    36     5     1    1
    37    13     8    1
    38    34    29    1
    39    19    14   ar
    40    37    30    1
    41    27    28    1
@<TRIPOS>MOLECULE
*****
 37 41 0 0 0
SMALL
GASTEIGER

@<TRIPOS>ATOM
      1 C         138.8315  141.2696  164.6545 C.3     1  UNL1        0.0704
      2 C         138.4736  139.8212  164.4989 C.3     1  UNL1        0.0100
      3 C         138.7734  139.1279  165.7948 C.3     1  UNL1        0.0162
      4 C         139.3167  140.1477  166.7513 C.3     1  UNL1        0.0544
      5 C         139.3525  141.4713  166.0466 C.3     1  UNL1        0.0243
      6 C         138.3649  141.3752  163.2329 C.2     1  UNL1        0.2248
      7 O         136.9308  141.7000  162.9364 O.2     1  UNL1       -0.2749
      8 N         139.3322  141.1560  162.1077 N.am    1  UNL1       -0.2760
      9 C         140.7664  140.8312  162.4041 C.3     1  UNL1        0.1149
     10 C         141.7338  140.6120  161.2790 C.3     1  UNL1        0.1137
     11 N         141.2672  140.7177  159.8573 N.pl3   1  UNL1       -0.2897
     12 C         139.8331  141.0425  159.5609 C.3     1  UNL1        0.1137
     13 C         138.8656  141.2617  160.6861 C.3     1  UNL1        0.1149
     14 C         142.2346  140.4985  158.7321 C.ar    1  UNL1        0.1317
     15 C         143.4548  141.3628  158.6131 C.ar    1  UNL1        0.0382
     16 C         144.4222  141.1436  157.4879 C.ar    1  UNL1        0.0757
     17 C         144.1695  140.0601  156.4818 C.ar    1  UNL1        0.0246
     18 C         142.9493  139.1958  156.6009 C.ar    1  UNL1        0.1002
     19 N         141.9819  139.4151  157.7261 N.ar    1  UNL1       -0.2292
     20 C         145.6424  142.0080  157.3688 C.3     1  UNL1        0.4187
     21 F         146.8626  142.8722  157.2497 F       1  UNL1       -0.1659
     22 F         146.0853  141.2178  156.1732 F       1  UNL1       -0.1659
     23 F         145.1995  142.7980  158.5644 F       1  UNL1       -0.1659
     24 C         137.9515  143.6833  164.2683 C.3     1  UNL1        0.0005
     25 C         139.0918  142.7400  164.5130 C.3     1  UNL1        0.0082
     26 C         140.4924  143.2670  164.6161 C.3     1  UNL1        0.0005
     27 N         139.7482  139.8892  168.1645 N.3     1  UNL1       -0.2995
     28 H         140.1413  138.9482  168.1849 H       1  UNL1        0.1232
     29 C         140.7515  140.7919  168.8192 C.3     1  UNL1        0.0587
     30 C         142.0589  141.0767  168.1414 C.3     1  UNL1        0.0441
     31 C         143.0622  141.9793  168.7961 C.3     1  UNL1        0.0038
     32 C         142.7580  142.5971  170.1287 C.3     1  UNL1        0.0003
     33 C         141.4506  142.3122  170.8065 C.3     1  UNL1        0.0038
     34 C         140.4474  141.4096  170.1518 C.3     1  UNL1        0.0441
     35 C         139.4441  140.5070  169.4971 C.3     1  UNL1        0.1434
     36 O         139.7482  139.8892  168.1645 O.3     1  UNL1       -0.3537
     37 C         141.0557  140.1741  167.4866 C.3     1  UNL1        0.1434
@<TRIPOS>BOND
     1    24    25    1
     2    25    26    1
     3     1    25    1
     4     1     6    1
     5     6     7    2
     6     6     8   am
     7     8     9    1
     8     9    10    1
     9    10    11    1
    10    11    14    1
    11    14    15   ar
    12    15    16   ar
    13    16    20    1
    14    20    21    1
    15    20    22    1
    16    20    23    1
    17    16    17   ar
    18    17    18   ar
    19    18    19   ar
    20    11    12    1
    21    12    13    1
    22     1     2    1
    23     2     3    1
    24     3     4    1
    25     4    27    1
    26    27    29    1
    27    29    30    1
    28    30    31    1
    29    31    32    1
    30    32    33    1
    31    33    34    1
    32    34    35    1
    33    35    36    1
    34    36    37    1
    35     4     5    1
    36     5     1    1
    37    13     8    1
    38    34    29    1
    39    19    14   ar
    40    37    30    1
    41    27    28    1
