@<TRIPOS>MOLECULE
*****
 38 43 0 0 0
SMALL
GASTEIGER

@<TRIPOS>ATOM
      1 C         137.8578  142.9652  162.9912 C.3     1  UNL1        0.0932
      2 C         137.6458  141.8224  163.9394 C.3     1  UNL1        0.0286
      3 C         137.6563  140.4121  163.4285 C.3     1  UNL1        0.0193
      4 C         137.8788  140.1446  161.9694 C.3     1  UNL1        0.0700
      5 C         138.0908  141.2874  161.0212 C.3     1  UNL1        0.0193
      6 C         138.0803  142.6978  161.5322 C.3     1  UNL1        0.0286
      7 C         137.8815  140.9343  162.2025 C.3     1  UNL1        0.1562
      8 O         137.8720  142.2095  162.6645 O.3     1  UNL1       -0.3572
      9 N         137.8893  138.7344  161.4585 N.3     1  UNL1       -0.2926
     10 H         137.3167  138.7227  160.6145 H       1  UNL1        0.1236
     11 C         139.1894  138.0730  161.1088 C.3     1  UNL1        0.1152
     12 C         140.3854  138.2542  161.9958 C.ar    1  UNL1        0.0765
     13 C         140.5328  137.4225  163.2354 C.ar    1  UNL1        0.0193
     14 C         141.7288  137.6037  164.1223 C.ar    1  UNL1        0.0411
     15 C         142.7775  138.6166  163.7697 C.ar    1  UNL1        0.1708
     16 C         142.6302  139.4483  162.5301 C.ar    1  UNL1        0.1682
     17 N         141.4341  139.2671  161.6431 N.ar    1  UNL1       -0.2304
     18 N         143.6788  140.4611  162.1775 N.am    1  UNL1       -0.2639
     19 C         144.8748  140.6424  163.0644 C.2     1  UNL1        0.2718
     20 O         145.9235  141.6552  162.7117 O.2     1  UNL1       -0.2707
     21 C         145.0222  139.8107  164.3040 C.3     1  UNL1        0.2898
     22 O         143.9735  138.7978  164.6567 O.3     1  UNL1       -0.4628
     23 H         143.5821  141.0070  161.3639 H       1  UNL1        0.1565
     24 C         137.8473  144.3754  163.5021 C.3     1  UNL1        0.0320
     25 C         138.8724  144.8179  164.5039 C.3     1  UNL1        0.0327
     26 C         140.8716  141.8630  167.2465 C.ar    1  UNL1        0.2250
     27 C         142.3162  141.5124  167.0462 C.ar    1  UNL1        0.0593
     28 C         143.0944  142.1467  165.9318 C.ar    1  UNL1        0.0254
     29 C         142.4280  143.1317  165.0176 C.ar    1  UNL1        0.0990
     30 N         143.2062  143.7660  163.9031 N.ar    1  UNL1       -0.2400
     31 C         142.5399  144.7510  162.9890 C.ar    1  UNL1        0.1281
     32 C         141.0952  145.1016  163.1892 C.ar    1  UNL1        0.1566
     33 F         140.4288  146.0866  162.2750 F       1  UNL1       -0.2028
     34 C         140.3170  144.4673  164.3037 C.ar    1  UNL1        0.0261
     35 C         140.9834  143.4823  165.2179 C.ar    1  UNL1        0.1002
     36 N         140.2052  142.8479  166.3323 N.ar    1  UNL1       -0.2104
     37 C         139.3562  139.9439  168.1244 C.3     1  UNL1        0.2542
     38 O         140.0934  141.2286  168.3609 O.3     1  UNL1       -0.4561
@<TRIPOS>BOND
     1    37    38    1
     2    38    26    1
     3    26    27   ar
     4    27    28   ar
     5    28    29   ar
     6    29    30   ar
     7    30    31   ar
     8    31    32   ar
     9    32    33    1
    10    32    34   ar
    11    34    25    1
    12    25    24    1
    13    24     1    1
    14     1     2    1
    15     2     3    1
    16     3     4    1
    17     4     9    1
    18     9    11    1
    19    11    12    1
    20    12    13   ar
    21    13    14   ar
    22    14    15   ar
    23    15    16   ar
    24    16    17   ar
    25    16    18    1
    26    18    19   am
    27    19    20    2
    28    19    21    1
    29    21    22    1
    30     4     5    1
    31     5     6    1
    32     4     7    1
    33     7     8    1
    34    34    35   ar
    35    35    36   ar
    36    36    26   ar
    37    35    29   ar
    38     6     1    1
    39     8     1    1
    40    17    12   ar
    41    22    15    1
    42     9    10    1
    43    18    23    1
@<TRIPOS>MOLECULE
*****
 38 43 0 0 0
SMALL
GASTEIGER

@<TRIPOS>ATOM
      1 C         142.0117  138.0606  164.0545 C.3     1  UNL1        0.0932
      2 C         142.9485  138.5642  165.1122 C.3     1  UNL1        0.0286
      3 C         144.1392  139.3913  164.7275 C.3     1  UNL1        0.0193
      4 C         144.3932  139.7148  163.2849 C.3     1  UNL1        0.0700
      5 C         143.4564  139.2111  162.2272 C.3     1  UNL1        0.0193
      6 C         142.2656  138.3840  162.6120 C.3     1  UNL1        0.0286
      7 C         143.7275  139.2581  163.4472 C.3     1  UNL1        0.1562
      8 O         142.6508  138.5102  163.7951 O.3     1  UNL1       -0.3572
      9 N         145.5839  140.5418  162.9002 N.3     1  UNL1       -0.2926
     10 H         145.6404  140.5209  161.8819 H       1  UNL1        0.1236
     11 C         145.6595  141.9832  163.3084 C.3     1  UNL1        0.1152
     12 C         144.4512  142.8629  163.1818 C.ar    1  UNL1        0.0765
     13 C         143.8088  143.4363  164.4101 C.ar    1  UNL1        0.0193
     14 C         142.6005  144.3160  164.2835 C.ar    1  UNL1        0.0411
     15 C         142.0345  144.6224  162.9286 C.ar    1  UNL1        0.1708
     16 C         142.6768  144.0490  161.7003 C.ar    1  UNL1        0.1682
     17 N         143.8851  143.1693  161.8269 N.ar    1  UNL1       -0.2304
     18 N         142.1107  144.3553  160.3454 N.am    1  UNL1       -0.2639
     19 C         140.9024  145.2350  160.2187 C.2     1  UNL1        0.2718
     20 O         140.3364  145.5414  158.8638 O.2     1  UNL1       -0.2707
     21 C         140.2601  145.8085  161.4471 C.3     1  UNL1        0.2898
     22 O         140.8261  145.5021  162.8020 O.3     1  UNL1       -0.4628
     23 H         142.5323  143.9790  159.5392 H       1  UNL1        0.1565
     24 C         140.8210  137.2335  164.4393 C.3     1  UNL1        0.0320
     25 C         139.5723  137.9013  164.9344 C.3     1  UNL1        0.0327
     26 C         140.2564  141.9656  166.7408 C.ar    1  UNL1        0.2250
     27 C         139.7364  143.1908  166.0493 C.ar    1  UNL1        0.0593
     28 C         138.9884  143.0613  164.7555 C.ar    1  UNL1        0.0254
     29 C         138.7604  141.7066  164.1534 C.ar    1  UNL1        0.0990
     30 N         138.0124  141.5771  162.8596 N.ar    1  UNL1       -0.2400
     31 C         137.7843  140.2224  162.2575 C.ar    1  UNL1        0.1281
     32 C         138.3043  138.9970  162.9491 C.ar    1  UNL1        0.1566
     33 F         138.0763  137.6423  162.3469 F       1  UNL1       -0.2028
     34 C         139.0523  139.1265  164.2428 C.ar    1  UNL1        0.0261
     35 C         139.2803  140.4813  164.8450 C.ar    1  UNL1        0.1002
     36 N         140.0283  140.6108  166.1387 N.ar    1  UNL1       -0.2104
     37 C         140.5285  143.0564  169.0830 C.3     1  UNL1        0.2542
     38 O         141.0044  142.0951  168.0346 O.3     1  UNL1       -0.4561
@<TRIPOS>BOND
     1    37    38    1
     2    38    26    1
     3    26    27   ar
     4    27    28   ar
     5    28    29   ar
     6    29    30   ar
     7    30    31   ar
     8    31    32   ar
     9    32    33    1
    10    32    34   ar
    11    34    25    1
    12    25    24    1
    13    24     1    1
    14     1     2    1
    15     2     3    1
    16     3     4    1
    17     4     9    1
    18     9    11    1
    19    11    12    1
    20    12    13   ar
    21    13    14   ar
    22    14    15   ar
    23    15    16   ar
    24    16    17   ar
    25    16    18    1
    26    18    19   am
    27    19    20    2
    28    19    21    1
    29    21    22    1
    30     4     5    1
    31     5     6    1
    32     4     7    1
    33     7     8    1
    34    34    35   ar
    35    35    36   ar
    36    36    26   ar
    37    35    29   ar
    38     6     1    1
    39     8     1    1
    40    17    12   ar
    41    22    15    1
    42     9    10    1
    43    18    23    1
@<TRIPOS>MOLECULE
*****
 38 43 0 0 0
SMALL
GASTEIGER

@<TRIPOS>ATOM
      1 C         141.4692  138.2750  164.6648 C.3     1  UNL1        0.0932
      2 C         140.1052  138.6089  165.1918 C.3     1  UNL1        0.0286
      3 C         138.9176  138.5717  164.2763 C.3     1  UNL1        0.0193
      4 C         139.0940  138.2005  162.8337 C.3     1  UNL1        0.0700
      5 C         140.4581  137.8666  162.3066 C.3     1  UNL1        0.0193
      6 C         141.6457  137.9038  163.2222 C.3     1  UNL1        0.0286
      7 C         139.7746  138.2072  163.2970 C.3     1  UNL1        0.1562
      8 O         140.8485  138.2409  164.1249 O.3     1  UNL1       -0.3572
      9 N         137.9065  138.1633  161.9181 N.3     1  UNL1       -0.2926
     10 H         137.0778  138.2431  162.5074 H       1  UNL1        0.1236
     11 C         137.7651  139.1872  160.8311 C.3     1  UNL1        0.1152
     12 C         138.1068  140.6221  161.1033 C.ar    1  UNL1        0.0765
     13 C         137.4625  141.3419  162.2509 C.ar    1  UNL1        0.0193
     14 C         137.8043  142.7768  162.5231 C.ar    1  UNL1        0.0411
     15 C         138.7903  143.4920  161.6478 C.ar    1  UNL1        0.1708
     16 C         139.4346  142.7723  160.5003 C.ar    1  UNL1        0.1682
     17 N         139.0929  141.3373  160.2280 N.ar    1  UNL1       -0.2304
     18 N         140.4206  143.4876  159.6250 N.am    1  UNL1       -0.2639
     19 C         140.7624  144.9225  159.8972 C.2     1  UNL1        0.2718
     20 O         141.7484  145.6377  159.0219 O.2     1  UNL1       -0.2707
     21 C         140.1181  145.6423  161.0448 C.3     1  UNL1        0.2898
     22 O         139.1321  144.9270  161.9201 O.3     1  UNL1       -0.4628
     23 H         140.8435  143.0152  158.8718 H       1  UNL1        0.1565
     24 C         142.6568  138.3122  165.5803 C.3     1  UNL1        0.0320
     25 C         143.1995  139.6288  166.0517 C.3     1  UNL1        0.0327
     26 C         140.9109  143.4079  165.1971 C.ar    1  UNL1        0.2250
     27 C         141.4427  144.3986  164.2043 C.ar    1  UNL1        0.0593
     28 C         142.7375  144.1295  163.4964 C.ar    1  UNL1        0.0254
     29 C         143.5004  142.8699  163.7812 C.ar    1  UNL1        0.0990
     30 N         144.7952  142.6009  163.0733 N.ar    1  UNL1       -0.2400
     31 C         145.5581  141.3412  163.3581 C.ar    1  UNL1        0.1281
     32 C         145.0262  140.3504  164.3509 C.ar    1  UNL1        0.1566
     33 F         145.7891  139.0908  164.6358 F       1  UNL1       -0.2028
     34 C         143.7314  140.6195  165.0589 C.ar    1  UNL1        0.0261
     35 C         142.9685  141.8792  164.7740 C.ar    1  UNL1        0.1002
     36 N         141.6737  142.1482  165.4819 N.ar    1  UNL1       -0.2104
     37 C         138.7560  144.8310  165.4827 C.3     1  UNL1        0.2542
     38 O         139.6161  143.6769  165.9051 O.3     1  UNL1       -0.4561
@<TRIPOS>BOND
     1    37    38    1
     2    38    26    1
     3    26    27   ar
     4    27    28   ar
     5    28    29   ar
     6    29    30   ar
     7    30    31   ar
     8    31    32   ar
     9    32    33    1
    10    32    34   ar
    11    34    25    1
    12    25    24    1
    13    24     1    1
    14     1     2    1
    15     2     3    1
    16     3     4    1
    17     4     9    1
    18     9    11    1
    19    11    12    1
    20    12    13   ar
    21    13    14   ar
    22    14    15   ar
    23    15    16   ar
    24    16    17   ar
    25    16    18    1
    26    18    19   am
    27    19    20    2
    28    19    21    1
    29    21    22    1
    30     4     5    1
    31     5     6    1
    32     4     7    1
    33     7     8    1
    34    34    35   ar
    35    35    36   ar
    36    36    26   ar
    37    35    29   ar
    38     6     1    1
    39     8     1    1
    40    17    12   ar
    41    22    15    1
    42     9    10    1
    43    18    23    1
@<TRIPOS>MOLECULE
*****
 38 43 0 0 0
SMALL
GASTEIGER

@<TRIPOS>ATOM
      1 C         139.9612  137.9996  164.3905 C.3     1  UNL1        0.0932
      2 C         141.3540  138.0543  164.9445 C.3     1  UNL1        0.0286
      3 C         142.5325  137.9435  164.0232 C.3     1  UNL1        0.0193
      4 C         142.3182  137.7779  162.5478 C.3     1  UNL1        0.0700
      5 C         140.9254  137.7231  161.9938 C.3     1  UNL1        0.0193
      6 C         139.7468  137.8340  162.9151 C.3     1  UNL1        0.0286
      7 C         141.6413  137.8343  163.0132 C.3     1  UNL1        0.1562
      8 O         140.5757  137.9346  163.8462 O.3     1  UNL1       -0.3572
      9 N         143.4967  137.6670  161.6265 N.3     1  UNL1       -0.2926
     10 H         143.2612  136.9591  160.9310 H       1  UNL1        0.1236
     11 C         143.9754  138.8723  160.8727 C.3     1  UNL1        0.1152
     12 C         143.7278  140.2466  161.4204 C.ar    1  UNL1        0.0765
     13 C         142.7711  141.1697  160.7256 C.ar    1  UNL1        0.0193
     14 C         142.5235  142.5440  161.2732 C.ar    1  UNL1        0.0411
     15 C         143.2326  142.9952  162.5157 C.ar    1  UNL1        0.1708
     16 C         144.1892  142.0722  163.2105 C.ar    1  UNL1        0.1682
     17 N         144.4368  140.6978  162.6628 N.ar    1  UNL1       -0.2304
     18 N         144.8982  142.5234  164.4529 N.am    1  UNL1       -0.2639
     19 C         144.6506  143.8977  165.0006 C.2     1  UNL1        0.2718
     20 O         145.3597  144.3489  166.2430 O.2     1  UNL1       -0.2707
     21 C         143.6940  144.8208  164.3058 C.3     1  UNL1        0.2898
     22 O         142.9849  144.3696  163.0633 O.3     1  UNL1       -0.4628
     23 H         145.5261  141.9175  164.9089 H       1  UNL1        0.1565
     24 C         138.7827  138.1104  165.3117 C.3     1  UNL1        0.0320
     25 C         138.1195  139.4390  165.5248 C.3     1  UNL1        0.0327
     26 C         138.4282  142.9995  162.7904 C.ar    1  UNL1        0.2250
     27 C         139.2459  144.1892  163.1976 C.ar    1  UNL1        0.0593
     28 C         139.9608  144.1921  164.5163 C.ar    1  UNL1        0.0254
     29 C         139.8579  143.0053  165.4277 C.ar    1  UNL1        0.0990
     30 N         140.5728  143.0081  166.7464 N.ar    1  UNL1       -0.2400
     31 C         140.4699  141.8213  167.6579 C.ar    1  UNL1        0.1281
     32 C         139.6522  140.6315  167.2507 C.ar    1  UNL1        0.1566
     33 F         139.5493  139.4447  168.1621 F       1  UNL1       -0.2028
     34 C         138.9373  140.6287  165.9320 C.ar    1  UNL1        0.0261
     35 C         139.0402  141.8156  165.0205 C.ar    1  UNL1        0.1002
     36 N         138.3253  141.8127  163.7018 N.ar    1  UNL1       -0.2104
     37 C         138.4195  142.5210  160.2368 C.3     1  UNL1        0.2542
     38 O         137.7133  142.9967  161.4717 O.3     1  UNL1       -0.4561
@<TRIPOS>BOND
     1    37    38    1
     2    38    26    1
     3    26    27   ar
     4    27    28   ar
     5    28    29   ar
     6    29    30   ar
     7    30    31   ar
     8    31    32   ar
     9    32    33    1
    10    32    34   ar
    11    34    25    1
    12    25    24    1
    13    24     1    1
    14     1     2    1
    15     2     3    1
    16     3     4    1
    17     4     9    1
    18     9    11    1
    19    11    12    1
    20    12    13   ar
    21    13    14   ar
    22    14    15   ar
    23    15    16   ar
    24    16    17   ar
    25    16    18    1
    26    18    19   am
    27    19    20    2
    28    19    21    1
    29    21    22    1
    30     4     5    1
    31     5     6    1
    32     4     7    1
    33     7     8    1
    34    34    35   ar
    35    35    36   ar
    36    36    26   ar
    37    35    29   ar
    38     6     1    1
    39     8     1    1
    40    17    12   ar
    41    22    15    1
    42     9    10    1
    43    18    23    1
@<TRIPOS>MOLECULE
*****
 38 43 0 0 0
SMALL
GASTEIGER

@<TRIPOS>ATOM
      1 C         141.6308  138.3745  164.3991 C.3     1  UNL1        0.0932
      2 C         142.7990  138.5662  165.3203 C.3     1  UNL1        0.0286
      3 C         144.0388  139.2512  164.8267 C.3     1  UNL1        0.0193
      4 C         144.1105  139.7444  163.4119 C.3     1  UNL1        0.0700
      5 C         142.9423  139.5527  162.4907 C.3     1  UNL1        0.0193
      6 C         141.7024  138.8677  162.9844 C.3     1  UNL1        0.0286
      7 C         143.4099  139.3750  163.6370 C.3     1  UNL1        0.1562
      8 O         142.2888  138.7557  164.0833 O.3     1  UNL1       -0.3572
      9 N         145.3503  140.4294  162.9183 N.3     1  UNL1       -0.2926
     10 H         145.3940  140.2698  161.9118 H       1  UNL1        0.1236
     11 C         145.5280  141.9035  163.1312 C.3     1  UNL1        0.1152
     12 C         144.3451  142.8218  163.0445 C.ar    1  UNL1        0.0765
     13 C         143.7536  143.4029  164.2946 C.ar    1  UNL1        0.0193
     14 C         142.5708  144.3212  164.2080 C.ar    1  UNL1        0.0411
     15 C         141.9793  144.6584  162.8714 C.ar    1  UNL1        0.1708
     16 C         142.5708  144.0773  161.6214 C.ar    1  UNL1        0.1682
     17 N         143.7537  143.1590  161.7079 N.ar    1  UNL1       -0.2304
     18 N         141.9794  144.4146  160.2848 N.am    1  UNL1       -0.2639
     19 C         140.7965  145.3328  160.1982 C.2     1  UNL1        0.2718
     20 O         140.2051  145.6701  158.8616 O.2     1  UNL1       -0.2707
     21 C         140.2050  145.9139  161.4482 C.3     1  UNL1        0.2898
     22 O         140.7964  145.5767  162.7848 O.3     1  UNL1       -0.4628
     23 H         142.3676  144.0332  159.4644 H       1  UNL1        0.1565
     24 C         140.3910  137.6896  164.8927 C.3     1  UNL1        0.0320
     25 C         139.2926  138.4914  165.5258 C.3     1  UNL1        0.0327
     26 C         137.7689  141.2268  162.2937 C.ar    1  UNL1        0.2250
     27 C         137.9132  142.7127  162.4391 C.ar    1  UNL1        0.0593
     28 C         138.5654  143.2868  163.6618 C.ar    1  UNL1        0.0254
     29 C         139.0733  142.3751  164.7391 C.ar    1  UNL1        0.0990
     30 N         139.7254  142.9493  165.9618 N.ar    1  UNL1       -0.2400
     31 C         140.2333  142.0375  167.0392 C.ar    1  UNL1        0.1281
     32 C         140.0891  140.5515  166.8938 C.ar    1  UNL1        0.1566
     33 F         140.5969  139.6397  167.9712 F       1  UNL1       -0.2028
     34 C         139.4369  139.9773  165.6711 C.ar    1  UNL1        0.0261
     35 C         138.9290  140.8892  164.5938 C.ar    1  UNL1        0.1002
     36 N         138.2768  140.3150  163.3711 N.ar    1  UNL1       -0.2104
     37 C         137.9376  139.8989  160.0670 C.3     1  UNL1        0.2542
     38 O         137.1168  140.6526  161.0710 O.3     1  UNL1       -0.4561
@<TRIPOS>BOND
     1    37    38    1
     2    38    26    1
     3    26    27   ar
     4    27    28   ar
     5    28    29   ar
     6    29    30   ar
     7    30    31   ar
     8    31    32   ar
     9    32    33    1
    10    32    34   ar
    11    34    25    1
    12    25    24    1
    13    24     1    1
    14     1     2    1
    15     2     3    1
    16     3     4    1
    17     4     9    1
    18     9    11    1
    19    11    12    1
    20    12    13   ar
    21    13    14   ar
    22    14    15   ar
    23    15    16   ar
    24    16    17   ar
    25    16    18    1
    26    18    19   am
    27    19    20    2
    28    19    21    1
    29    21    22    1
    30     4     5    1
    31     5     6    1
    32     4     7    1
    33     7     8    1
    34    34    35   ar
    35    35    36   ar
    36    36    26   ar
    37    35    29   ar
    38     6     1    1
    39     8     1    1
    40    17    12   ar
    41    22    15    1
    42     9    10    1
    43    18    23    1
@<TRIPOS>MOLECULE
*****
 38 43 0 0 0
SMALL
GASTEIGER

@<TRIPOS>ATOM
      1 C         140.9142  137.6711  164.1420 C.3     1  UNL1        0.0932
      2 C         142.1298  138.3160  164.7392 C.3     1  UNL1        0.0286
      3 C         143.2834  138.6997  163.8606 C.3     1  UNL1        0.0193
      4 C         143.2215  138.4384  162.3848 C.3     1  UNL1        0.0700
      5 C         142.0060  137.7935  161.7876 C.3     1  UNL1        0.0193
      6 C         140.8523  137.4098  162.6663 C.3     1  UNL1        0.0286
      7 C         142.5646  138.2106  162.8259 C.3     1  UNL1        0.1562
      8 O         141.5215  137.8637  163.6203 O.3     1  UNL1       -0.3572
      9 N         144.3751  138.8221  161.5062 N.3     1  UNL1       -0.2926
     10 H         144.4798  138.0783  160.8162 H       1  UNL1        0.1236
     11 C         144.3420  140.1154  160.7471 C.3     1  UNL1        0.1152
     12 C         143.9010  141.3754  161.4310 C.ar    1  UNL1        0.0765
     13 C         144.8073  142.0499  162.4179 C.ar    1  UNL1        0.0193
     14 C         144.3663  143.3099  163.1018 C.ar    1  UNL1        0.0411
     15 C         143.0190  143.8955  162.7990 C.ar    1  UNL1        0.1708
     16 C         142.1127  143.2212  161.8122 C.ar    1  UNL1        0.1682
     17 N         142.5537  141.9611  161.1282 N.ar    1  UNL1       -0.2304
     18 N         140.7654  143.8068  161.5093 N.am    1  UNL1       -0.2639
     19 C         140.3243  145.0669  162.1933 C.2     1  UNL1        0.2718
     20 O         138.9770  145.6525  161.8904 O.2     1  UNL1       -0.2707
     21 C         141.2307  145.7413  163.1801 C.3     1  UNL1        0.2898
     22 O         142.5780  145.1556  163.4830 O.3     1  UNL1       -0.4628
     23 H         140.1705  143.3642  160.8616 H       1  UNL1        0.1565
     24 C         139.7606  137.2874  165.0206 C.3     1  UNL1        0.0320
     25 C         138.5950  138.2185  165.1772 C.3     1  UNL1        0.0327
     26 C         140.3040  141.5871  167.6230 C.ar    1  UNL1        0.2250
     27 C         140.3682  142.9720  167.0505 C.ar    1  UNL1        0.0593
     28 C         139.8627  143.2341  165.6628 C.ar    1  UNL1        0.0254
     29 C         139.2931  142.1113  164.8475 C.ar    1  UNL1        0.0990
     30 N         138.7876  142.3734  163.4598 N.ar    1  UNL1       -0.2400
     31 C         138.2179  141.2506  162.6445 C.ar    1  UNL1        0.1281
     32 C         138.1537  139.8655  163.2170 C.ar    1  UNL1        0.1566
     33 F         137.5841  138.7427  162.4018 F       1  UNL1       -0.2028
     34 C         138.6592  139.6034  164.6047 C.ar    1  UNL1        0.0261
     35 C         139.2289  140.7263  165.4200 C.ar    1  UNL1        0.1002
     36 N         139.7344  140.4642  166.8077 N.ar    1  UNL1       -0.2104
     37 C         139.8444  141.2304  170.1551 C.3     1  UNL1        0.2542
     38 O         140.8095  141.3250  169.0107 O.3     1  UNL1       -0.4561
@<TRIPOS>BOND
     1    37    38    1
     2    38    26    1
     3    26    27   ar
     4    27    28   ar
     5    28    29   ar
     6    29    30   ar
     7    30    31   ar
     8    31    32   ar
     9    32    33    1
    10    32    34   ar
    11    34    25    1
    12    25    24    1
    13    24     1    1
    14     1     2    1
    15     2     3    1
    16     3     4    1
    17     4     9    1
    18     9    11    1
    19    11    12    1
    20    12    13   ar
    21    13    14   ar
    22    14    15   ar
    23    15    16   ar
    24    16    17   ar
    25    16    18    1
    26    18    19   am
    27    19    20    2
    28    19    21    1
    29    21    22    1
    30     4     5    1
    31     5     6    1
    32     4     7    1
    33     7     8    1
    34    34    35   ar
    35    35    36   ar
    36    36    26   ar
    37    35    29   ar
    38     6     1    1
    39     8     1    1
    40    17    12   ar
    41    22    15    1
    42     9    10    1
    43    18    23    1
@<TRIPOS>MOLECULE
*****
 38 43 0 0 0
SMALL
GASTEIGER

@<TRIPOS>ATOM
      1 C         144.3528  139.6997  163.7372 C.3     1  UNL1        0.0932
      2 C         143.4706  139.2365  164.8584 C.3     1  UNL1        0.0286
      3 C         142.2886  138.3595  164.5695 C.3     1  UNL1        0.0193
      4 C         141.9886  137.9457  163.1592 C.3     1  UNL1        0.0700
      5 C         142.8708  138.4089  162.0379 C.3     1  UNL1        0.0193
      6 C         144.0529  139.2859  162.3269 C.3     1  UNL1        0.0286
      7 C         142.6476  138.4272  163.2683 C.3     1  UNL1        0.1562
      8 O         143.7164  139.2202  163.5296 O.3     1  UNL1       -0.3572
      9 N         140.8065  137.0687  162.8702 N.3     1  UNL1       -0.2926
     10 H         140.9768  136.1803  163.3415 H       1  UNL1        0.1236
     11 C         139.4292  137.5119  163.2659 C.3     1  UNL1        0.1152
     12 C         138.9669  138.9018  162.9429 C.ar    1  UNL1        0.0765
     13 C         138.3474  139.1951  161.6086 C.ar    1  UNL1        0.0193
     14 C         137.8850  140.5850  161.2855 C.ar    1  UNL1        0.0411
     15 C         138.0421  141.6816  162.2968 C.ar    1  UNL1        0.1708
     16 C         138.6615  141.3885  163.6311 C.ar    1  UNL1        0.1682
     17 N         139.1239  139.9985  163.9542 N.ar    1  UNL1       -0.2304
     18 N         138.8185  142.4851  164.6423 N.am    1  UNL1       -0.2639
     19 C         138.3561  143.8750  164.3193 C.2     1  UNL1        0.2718
     20 O         138.5131  144.9717  165.3305 O.2     1  UNL1       -0.2707
     21 C         137.7367  144.1683  162.9849 C.3     1  UNL1        0.2898
     22 O         137.5797  143.0716  161.9737 O.3     1  UNL1       -0.4628
     23 H         139.2250  142.2927  165.5181 H       1  UNL1        0.1565
     24 C         145.5349  140.5767  164.0262 C.3     1  UNL1        0.0320
     25 C         145.5548  141.9943  163.5360 C.3     1  UNL1        0.0327
     26 C         144.0385  142.7432  159.3659 C.ar    1  UNL1        0.2250
     27 C         142.7503  143.4830  159.1578 C.ar    1  UNL1        0.0593
     28 C         141.9676  143.9731  160.3398 C.ar    1  UNL1        0.0254
     29 C         142.4730  143.7235  161.7298 C.ar    1  UNL1        0.0990
     30 N         141.6902  144.2136  162.9118 N.ar    1  UNL1       -0.2400
     31 C         142.1956  143.9639  164.3018 C.ar    1  UNL1        0.1281
     32 C         143.4838  143.2241  164.5099 C.ar    1  UNL1        0.1566
     33 F         143.9892  142.9745  165.8999 F       1  UNL1       -0.2028
     34 C         144.2666  142.7340  163.3279 C.ar    1  UNL1        0.0261
     35 C         143.7611  142.9837  161.9379 C.ar    1  UNL1        0.1002
     36 N         144.5439  142.4936  160.7559 N.ar    1  UNL1       -0.2104
     37 C         144.5878  140.8707  157.6507 C.3     1  UNL1        0.2542
     38 O         144.8213  142.2531  158.1839 O.3     1  UNL1       -0.4561
@<TRIPOS>BOND
     1    37    38    1
     2    38    26    1
     3    26    27   ar
     4    27    28   ar
     5    28    29   ar
     6    29    30   ar
     7    30    31   ar
     8    31    32   ar
     9    32    33    1
    10    32    34   ar
    11    34    25    1
    12    25    24    1
    13    24     1    1
    14     1     2    1
    15     2     3    1
    16     3     4    1
    17     4     9    1
    18     9    11    1
    19    11    12    1
    20    12    13   ar
    21    13    14   ar
    22    14    15   ar
    23    15    16   ar
    24    16    17   ar
    25    16    18    1
    26    18    19   am
    27    19    20    2
    28    19    21    1
    29    21    22    1
    30     4     5    1
    31     5     6    1
    32     4     7    1
    33     7     8    1
    34    34    35   ar
    35    35    36   ar
    36    36    26   ar
    37    35    29   ar
    38     6     1    1
    39     8     1    1
    40    17    12   ar
    41    22    15    1
    42     9    10    1
    43    18    23    1
@<TRIPOS>MOLECULE
*****
 38 43 0 0 0
SMALL
GASTEIGER

@<TRIPOS>ATOM
      1 C         142.0984  137.9838  163.4218 C.3     1  UNL1        0.0932
      2 C         142.9440  138.3102  162.2266 C.3     1  UNL1        0.0286
      3 C         144.1193  139.2313  162.3684 C.3     1  UNL1        0.0193
      4 C         144.4492  139.8260  163.7054 C.3     1  UNL1        0.0700
      5 C         143.6036  139.4996  164.9006 C.3     1  UNL1        0.0193
      6 C         142.4282  138.5785  164.7588 C.3     1  UNL1        0.0286
      7 C         143.7952  139.3266  163.6769 C.3     1  UNL1        0.1562
      8 O         142.7324  138.4937  163.5487 O.3     1  UNL1       -0.3572
      9 N         145.6245  140.7471  163.8472 N.3     1  UNL1       -0.2926
     10 H         146.4451  140.2274  163.5357 H       1  UNL1        0.1236
     11 C         145.6412  142.0591  163.1203 C.3     1  UNL1        0.1152
     12 C         144.4141  142.9214  163.1009 C.ar    1  UNL1        0.0765
     13 C         143.8402  143.4384  164.3868 C.ar    1  UNL1        0.0193
     14 C         142.6131  144.3007  164.3674 C.ar    1  UNL1        0.0411
     15 C         141.9597  144.6461  163.0622 C.ar    1  UNL1        0.1708
     16 C         142.5334  144.1292  161.7763 C.ar    1  UNL1        0.1682
     17 N         143.7607  143.2668  161.7956 N.ar    1  UNL1       -0.2304
     18 N         141.8800  144.4746  160.4710 N.am    1  UNL1       -0.2639
     19 C         140.6529  145.3369  160.4516 C.2     1  UNL1        0.2718
     20 O         139.9995  145.6823  159.1463 O.2     1  UNL1       -0.2707
     21 C         140.0791  145.8539  161.7375 C.3     1  UNL1        0.2898
     22 O         140.7325  145.5085  163.0428 O.3     1  UNL1       -0.4628
     23 H         142.2566  144.1353  159.6270 H       1  UNL1        0.1565
     24 C         140.9231  137.0628  163.2800 C.3     1  UNL1        0.0320
     25 C         139.5942  137.6043  162.8428 C.3     1  UNL1        0.0327
     26 C         138.9303  141.3139  160.3836 C.ar    1  UNL1        0.2250
     27 C         138.3762  142.5507  161.0264 C.ar    1  UNL1        0.0593
     28 C         138.0434  142.5509  162.4890 C.ar    1  UNL1        0.0254
     29 C         138.2647  141.3144  163.3088 C.ar    1  UNL1        0.0990
     30 N         137.9318  141.3147  164.7714 N.ar    1  UNL1       -0.2400
     31 C         138.1531  140.0782  165.5911 C.ar    1  UNL1        0.1281
     32 C         138.7073  138.8414  164.9483 C.ar    1  UNL1        0.1566
     33 F         138.9286  137.6049  165.7681 F       1  UNL1       -0.2028
     34 C         139.0401  138.8411  163.4857 C.ar    1  UNL1        0.0261
     35 C         138.8188  140.0777  162.6659 C.ar    1  UNL1        0.1002
     36 N         139.1516  140.0774  161.2033 N.ar    1  UNL1       -0.2104
     37 C         138.8663  142.4770  158.0613 C.3     1  UNL1        0.2542
     38 O         139.2631  141.3136  158.9209 O.3     1  UNL1       -0.4561
@<TRIPOS>BOND
     1    37    38    1
     2    38    26    1
     3    26    27   ar
     4    27    28   ar
     5    28    29   ar
     6    29    30   ar
     7    30    31   ar
     8    31    32   ar
     9    32    33    1
    10    32    34   ar
    11    34    25    1
    12    25    24    1
    13    24     1    1
    14     1     2    1
    15     2     3    1
    16     3     4    1
    17     4     9    1
    18     9    11    1
    19    11    12    1
    20    12    13   ar
    21    13    14   ar
    22    14    15   ar
    23    15    16   ar
    24    16    17   ar
    25    16    18    1
    26    18    19   am
    27    19    20    2
    28    19    21    1
    29    21    22    1
    30     4     5    1
    31     5     6    1
    32     4     7    1
    33     7     8    1
    34    34    35   ar
    35    35    36   ar
    36    36    26   ar
    37    35    29   ar
    38     6     1    1
    39     8     1    1
    40    17    12   ar
    41    22    15    1
    42     9    10    1
    43    18    23    1
@<TRIPOS>MOLECULE
*****
 38 43 0 0 0
SMALL
GASTEIGER

@<TRIPOS>ATOM
      1 C         138.7163  144.0668  162.9345 C.3     1  UNL1        0.0932
      2 C         138.8930  143.8732  164.4114 C.3     1  UNL1        0.0286
      3 C         138.6081  142.5378  165.0322 C.3     1  UNL1        0.0193
      4 C         138.1464  141.3959  164.1761 C.3     1  UNL1        0.0700
      5 C         137.9696  141.5895  162.6992 C.3     1  UNL1        0.0193
      6 C         138.2546  142.9250  162.0784 C.3     1  UNL1        0.0286
      7 C         138.2901  142.1092  163.7907 C.3     1  UNL1        0.1562
      8 O         138.5478  143.3167  163.2293 O.3     1  UNL1       -0.3572
      9 N         137.8615  140.0605  164.7969 N.3     1  UNL1       -0.2926
     10 H         137.1793  139.5965  164.1971 H       1  UNL1        0.1236
     11 C         138.9776  139.0835  165.0197 C.3     1  UNL1        0.1152
     12 C         139.9869  139.3316  166.1011 C.ar    1  UNL1        0.0765
     13 C         141.4041  138.8728  165.9241 C.ar    1  UNL1        0.0193
     14 C         142.4134  139.1209  167.0056 C.ar    1  UNL1        0.0411
     15 C         142.0056  139.8280  168.2641 C.ar    1  UNL1        0.1708
     16 C         140.5886  140.2868  168.4412 C.ar    1  UNL1        0.1682
     17 N         139.5792  140.0387  167.3597 N.ar    1  UNL1       -0.2304
     18 N         140.1809  140.9939  169.6997 N.am    1  UNL1       -0.2639
     19 C         141.1902  141.2420  170.7812 C.2     1  UNL1        0.2718
     20 O         140.7825  141.9491  172.0397 O.2     1  UNL1       -0.2707
     21 C         142.6073  140.7832  170.6042 C.3     1  UNL1        0.2898
     22 O         143.0151  140.0761  169.3456 O.3     1  UNL1       -0.4628
     23 H         139.2508  141.2950  169.8159 H       1  UNL1        0.1565
     24 C         139.0012  145.4022  162.3137 C.3     1  UNL1        0.0320
     25 C         140.4190  145.8393  162.0925 C.3     1  UNL1        0.0327
     26 C         143.8465  143.4376  163.7459 C.ar    1  UNL1        0.2250
     27 C         144.7346  142.6617  162.8190 C.ar    1  UNL1        0.0593
     28 C         144.4802  142.6864  161.3409 C.ar    1  UNL1        0.0254
     29 C         143.3378  143.4869  160.7898 C.ar    1  UNL1        0.0990
     30 N         143.0834  143.5116  159.3117 N.ar    1  UNL1       -0.2400
     31 C         141.9409  144.3121  158.7606 C.ar    1  UNL1        0.1281
     32 C         141.0527  145.0881  159.6875 C.ar    1  UNL1        0.1566
     33 F         139.9102  145.8887  159.1364 F       1  UNL1       -0.2028
     34 C         141.3071  145.0634  161.1656 C.ar    1  UNL1        0.0261
     35 C         142.4497  144.2628  161.7167 C.ar    1  UNL1        0.1002
     36 N         142.7041  144.2382  163.1948 N.ar    1  UNL1       -0.2104
     37 C         143.2067  142.6148  166.1257 C.3     1  UNL1        0.2542
     38 O         144.1009  143.4130  165.2240 O.3     1  UNL1       -0.4561
@<TRIPOS>BOND
     1    37    38    1
     2    38    26    1
     3    26    27   ar
     4    27    28   ar
     5    28    29   ar
     6    29    30   ar
     7    30    31   ar
     8    31    32   ar
     9    32    33    1
    10    32    34   ar
    11    34    25    1
    12    25    24    1
    13    24     1    1
    14     1     2    1
    15     2     3    1
    16     3     4    1
    17     4     9    1
    18     9    11    1
    19    11    12    1
    20    12    13   ar
    21    13    14   ar
    22    14    15   ar
    23    15    16   ar
    24    16    17   ar
    25    16    18    1
    26    18    19   am
    27    19    20    2
    28    19    21    1
    29    21    22    1
    30     4     5    1
    31     5     6    1
    32     4     7    1
    33     7     8    1
    34    34    35   ar
    35    35    36   ar
    36    36    26   ar
    37    35    29   ar
    38     6     1    1
    39     8     1    1
    40    17    12   ar
    41    22    15    1
    42     9    10    1
    43    18    23    1
