@<TRIPOS>MOLECULE
*****
 29 31 0 0 0
SMALL
GASTEIGER

@<TRIPOS>ATOM
      1 C         138.7138  140.2335  163.4950 C.ar    1  UNL1        0.1030
      2 C         138.8621  138.9541  162.7262 C.ar    1  UNL1        0.0414
      3 C         138.9292  137.6447  163.4548 C.ar    1  UNL1        0.1034
      4 N         138.8479  137.6147  164.9523 N.ar    1  UNL1       -0.2120
      5 C         138.6996  138.8940  165.7212 C.ar    1  UNL1        0.2207
      6 N         138.6326  140.2034  164.9925 N.ar    1  UNL1       -0.2120
      7 C         139.4402  145.2989  162.1930 C.3     1  UNL1        0.0718
      8 C         138.9806  143.8712  162.1679 C.ar    1  UNL1        0.1208
      9 N         138.1062  143.2447  161.1224 N.ar    1  UNL1       -0.2293
     10 C         137.8999  141.8057  161.4923 C.ar    1  UNL1        0.1188
     11 C         138.6467  141.5430  162.7664 C.ar    1  UNL1        0.0981
     12 N         139.3146  142.8195  163.1839 N.ar    1  UNL1       -0.3155
     13 C         140.1668  143.0108  164.4034 C.3     1  UNL1        0.0868
     14 C         139.6041  143.6995  165.6112 C.3     1  UNL1        0.0245
     15 C         141.5819  142.5132  164.4149 C.3     1  UNL1        0.0245
     16 N         138.6184  138.8640  167.2187 N.pl3   1  UNL1       -0.2825
     17 H         138.1034  138.1564  167.6696 H       1  UNL1        0.1551
     18 C         139.3218  139.9120  168.0291 C.ar    1  UNL1        0.0527
     19 C         138.8323  140.2491  169.4064 C.ar    1  UNL1        0.0150
     20 C         139.5357  141.2971  170.2168 C.ar    1  UNL1        0.0080
     21 C         140.7287  142.0081  169.6500 C.ar    1  UNL1        0.0806
     22 C         141.2183  141.6711  168.2728 C.ar    1  UNL1        0.1457
     23 F         142.4113  142.3821  167.7060 F       1  UNL1       -0.2040
     24 C         140.5148  140.6230  167.4623 C.ar    1  UNL1        0.0444
     25 C         141.4321  143.0561  170.4605 C.2     1  UNL1        0.2449
     26 N         142.5626  142.6695  171.3674 N.am    1  UNL1       -0.3253
     27 O         141.0050  144.4908  170.3641 O.2     1  UNL1       -0.2703
     28 H         142.8429  141.7279  171.4307 H       1  UNL1        0.1453
     29 H         143.0243  143.3573  171.8993 H       1  UNL1        0.1453
@<TRIPOS>BOND
     1     7     8    1
     2     8     9   ar
     3     9    10   ar
     4    10    11   ar
     5    11     1    1
     6     1     2   ar
     7     2     3   ar
     8     3     4   ar
     9     4     5   ar
    10     5    16    1
    11    16    18    1
    12    18    19   ar
    13    19    20   ar
    14    20    21   ar
    15    21    25    1
    16    25    26   am
    17    25    27    2
    18    21    22   ar
    19    22    23    1
    20    22    24   ar
    21     5     6   ar
    22    11    12   ar
    23    12    13    1
    24    13    14    1
    25    13    15    1
    26    12     8   ar
    27     6     1   ar
    28    24    18   ar
    29    16    17    1
    30    26    28    1
    31    26    29    1
@<TRIPOS>MOLECULE
*****
 29 31 0 0 0
SMALL
GASTEIGER

@<TRIPOS>ATOM
      1 C         140.0458  141.1069  162.9712 C.ar    1  UNL1        0.1030
      2 C         140.0663  140.0428  161.9142 C.ar    1  UNL1        0.0414
      3 C         140.5938  138.6760  162.2360 C.ar    1  UNL1        0.1034
      4 N         141.1007  138.3733  163.6150 N.ar    1  UNL1       -0.2120
      5 C         141.0801  139.4373  164.6720 C.ar    1  UNL1        0.2207
      6 N         140.5527  140.8041  164.3501 N.ar    1  UNL1       -0.2120
      7 C         139.8032  146.2672  161.8788 C.3     1  UNL1        0.0718
      8 C         139.4068  144.8456  162.1472 C.ar    1  UNL1        0.1208
      9 N         138.0063  144.3084  162.1609 N.ar    1  UNL1       -0.2293
     10 C         138.0753  142.8425  162.4713 C.ar    1  UNL1        0.1188
     11 C         139.5183  142.4737  162.6493 C.ar    1  UNL1        0.0981
     12 N         140.3412  143.7117  162.4491 N.ar    1  UNL1       -0.3155
     13 C         141.8361  143.8003  162.5355 C.3     1  UNL1        0.0868
     14 C         142.4926  144.1527  163.8372 C.3     1  UNL1        0.0245
     15 C         142.6745  143.5365  161.3199 C.3     1  UNL1        0.0245
     16 N         141.5871  139.1346  166.0509 N.pl3   1  UNL1       -0.2825
     17 H         142.1246  138.3255  166.2111 H       1  UNL1        0.1551
     18 C         141.2750  140.0646  167.1856 C.ar    1  UNL1        0.0527
     19 C         142.2181  141.1818  167.5208 C.ar    1  UNL1        0.0150
     20 C         141.9060  142.1118  168.6556 C.ar    1  UNL1        0.0080
     21 C         140.6508  141.9246  169.4552 C.ar    1  UNL1        0.0806
     22 C         139.7077  140.8074  169.1201 C.ar    1  UNL1        0.1457
     23 F         138.4525  140.6201  169.9197 F       1  UNL1       -0.2040
     24 C         140.0198  139.8773  167.9853 C.ar    1  UNL1        0.0444
     25 C         140.3388  142.8546  170.5900 C.2     1  UNL1        0.2449
     26 N         140.0333  144.2972  170.3152 N.am    1  UNL1       -0.3253
     27 O         140.3322  142.3420  171.9997 O.2     1  UNL1       -0.2703
     28 H         140.0376  144.6336  169.3899 H       1  UNL1        0.1453
     29 H         139.8285  144.9076  171.0600 H       1  UNL1        0.1453
@<TRIPOS>BOND
     1     7     8    1
     2     8     9   ar
     3     9    10   ar
     4    10    11   ar
     5    11     1    1
     6     1     2   ar
     7     2     3   ar
     8     3     4   ar
     9     4     5   ar
    10     5    16    1
    11    16    18    1
    12    18    19   ar
    13    19    20   ar
    14    20    21   ar
    15    21    25    1
    16    25    26   am
    17    25    27    2
    18    21    22   ar
    19    22    23    1
    20    22    24   ar
    21     5     6   ar
    22    11    12   ar
    23    12    13    1
    24    13    14    1
    25    13    15    1
    26    12     8   ar
    27     6     1   ar
    28    24    18   ar
    29    16    17    1
    30    26    28    1
    31    26    29    1
@<TRIPOS>MOLECULE
*****
 29 31 0 0 0
SMALL
GASTEIGER

@<TRIPOS>ATOM
      1 C         140.7912  140.3178  163.2730 C.ar    1  UNL1        0.1030
      2 C         141.5147  139.5255  162.2249 C.ar    1  UNL1        0.0414
      3 C         142.6251  138.5975  162.6196 C.ar    1  UNL1        0.1034
      4 N         143.0119  138.4619  164.0625 N.ar    1  UNL1       -0.2120
      5 C         142.2884  139.2542  165.1107 C.ar    1  UNL1        0.2207
      6 N         141.1780  140.1822  164.7159 N.ar    1  UNL1       -0.2120
      7 C         137.6460  144.5494  162.9856 C.3     1  UNL1        0.0718
      8 C         138.2350  143.1909  162.7462 C.ar    1  UNL1        0.1208
      9 N         137.7088  142.1568  161.7955 N.ar    1  UNL1       -0.2293
     10 C         138.6023  140.9547  161.8771 C.ar    1  UNL1        0.1188
     11 C         139.6807  141.2458  162.8783 C.ar    1  UNL1        0.0981
     12 N         139.4537  142.6279  163.4154 N.ar    1  UNL1       -0.3155
     13 C         140.2973  143.3246  164.4415 C.3     1  UNL1        0.0868
     14 C         141.5044  144.1062  164.0149 C.3     1  UNL1        0.0245
     15 C         139.9337  143.2397  165.8943 C.3     1  UNL1        0.0245
     16 N         142.6752  139.1186  166.5536 N.pl3   1  UNL1       -0.2825
     17 H         143.3043  138.4137  166.8304 H       1  UNL1        0.1551
     18 C         142.1036  140.0569  167.5747 C.ar    1  UNL1        0.0527
     19 C         142.9014  141.2409  168.0351 C.ar    1  UNL1        0.0150
     20 C         142.3298  142.1792  169.0562 C.ar    1  UNL1        0.0080
     21 C         140.9604  141.9337  169.6170 C.ar    1  UNL1        0.0806
     22 C         140.1627  140.7498  169.1567 C.ar    1  UNL1        0.1457
     23 F         138.7933  140.5042  169.7175 F       1  UNL1       -0.2040
     24 C         140.7343  139.8114  168.1355 C.ar    1  UNL1        0.0444
     25 C         140.3888  142.8721  170.6382 C.2     1  UNL1        0.2449
     26 N         140.0292  144.2754  170.2491 N.am    1  UNL1       -0.3253
     27 O         140.1768  142.4071  172.0485 O.2     1  UNL1       -0.2703
     28 H         140.1684  144.5805  169.3235 H       1  UNL1        0.1453
     29 H         139.6541  144.8912  170.9193 H       1  UNL1        0.1453
@<TRIPOS>BOND
     1     7     8    1
     2     8     9   ar
     3     9    10   ar
     4    10    11   ar
     5    11     1    1
     6     1     2   ar
     7     2     3   ar
     8     3     4   ar
     9     4     5   ar
    10     5    16    1
    11    16    18    1
    12    18    19   ar
    13    19    20   ar
    14    20    21   ar
    15    21    25    1
    16    25    26   am
    17    25    27    2
    18    21    22   ar
    19    22    23    1
    20    22    24   ar
    21     5     6   ar
    22    11    12   ar
    23    12    13    1
    24    13    14    1
    25    13    15    1
    26    12     8   ar
    27     6     1   ar
    28    24    18   ar
    29    16    17    1
    30    26    28    1
    31    26    29    1
@<TRIPOS>MOLECULE
*****
 29 31 0 0 0
SMALL
GASTEIGER

@<TRIPOS>ATOM
      1 C         139.8603  138.7508  165.2409 C.ar    1  UNL1        0.1030
      2 C         138.8426  137.6726  165.0135 C.ar    1  UNL1        0.0414
      3 C         137.8255  137.3660  166.0724 C.ar    1  UNL1        0.1034
      4 N         137.8259  138.1377  167.3586 N.ar    1  UNL1       -0.2120
      5 C         138.8435  139.2159  167.5860 C.ar    1  UNL1        0.2207
      6 N         139.8607  139.5225  166.5271 N.ar    1  UNL1       -0.2120
      7 C         144.3507  140.1665  162.8507 C.3     1  UNL1        0.0718
      8 C         142.9415  139.7081  163.0833 C.ar    1  UNL1        0.1208
      9 N         141.9441  139.3504  162.0215 N.ar    1  UNL1       -0.2293
     10 C         140.6685  138.9482  162.7006 C.ar    1  UNL1        0.1188
     11 C         140.8775  139.0575  164.1819 C.ar    1  UNL1        0.0981
     12 N         142.2823  139.5271  164.4185 N.ar    1  UNL1       -0.3155
     13 C         142.9166  139.7726  165.7554 C.3     1  UNL1        0.0868
     14 C         143.0555  141.1732  166.2738 C.3     1  UNL1        0.0245
     15 C         143.4120  138.6173  166.5739 C.3     1  UNL1        0.0245
     16 N         138.8440  139.9876  168.8723 N.pl3   1  UNL1       -0.2825
     17 H         138.0523  139.9699  169.4572 H       1  UNL1        0.1551
     18 C         140.0507  140.7862  169.2674 C.ar    1  UNL1        0.0527
     19 C         141.3657  140.0989  169.4878 C.ar    1  UNL1        0.0150
     20 C         142.5723  140.8975  169.8829 C.ar    1  UNL1        0.0080
     21 C         142.4641  142.3833  170.0577 C.ar    1  UNL1        0.0806
     22 C         141.1492  143.0706  169.8373 C.ar    1  UNL1        0.1457
     23 F         141.0410  144.5565  170.0120 F       1  UNL1       -0.2040
     24 C         139.9424  142.2720  169.4422 C.ar    1  UNL1        0.0444
     25 C         143.6709  143.1819  170.4528 C.2     1  UNL1        0.2449
     26 N         143.5582  144.2360  171.5139 N.am    1  UNL1       -0.3253
     27 O         144.9904  142.9263  169.7867 O.2     1  UNL1       -0.2703
     28 H         142.6921  144.4038  171.9511 H       1  UNL1        0.1453
     29 H         144.3502  144.7601  171.7733 H       1  UNL1        0.1453
@<TRIPOS>BOND
     1     7     8    1
     2     8     9   ar
     3     9    10   ar
     4    10    11   ar
     5    11     1    1
     6     1     2   ar
     7     2     3   ar
     8     3     4   ar
     9     4     5   ar
    10     5    16    1
    11    16    18    1
    12    18    19   ar
    13    19    20   ar
    14    20    21   ar
    15    21    25    1
    16    25    26   am
    17    25    27    2
    18    21    22   ar
    19    22    23    1
    20    22    24   ar
    21     5     6   ar
    22    11    12   ar
    23    12    13    1
    24    13    14    1
    25    13    15    1
    26    12     8   ar
    27     6     1   ar
    28    24    18   ar
    29    16    17    1
    30    26    28    1
    31    26    29    1
@<TRIPOS>MOLECULE
*****
 29 31 0 0 0
SMALL
GASTEIGER

@<TRIPOS>ATOM
      1 C         143.1351  140.9521  162.9619 C.ar    1  UNL1        0.1030
      2 C         144.5811  140.5547  162.9920 C.ar    1  UNL1        0.0414
      3 C         145.0981  139.6893  164.1027 C.ar    1  UNL1        0.1034
      4 N         144.1690  139.2212  165.1834 N.ar    1  UNL1       -0.2120
      5 C         142.7230  139.6186  165.1533 C.ar    1  UNL1        0.2207
      6 N         142.2060  140.4841  164.0426 N.ar    1  UNL1       -0.2120
      7 C         141.1735  145.0699  160.3016 C.3     1  UNL1        0.0718
      8 C         141.7164  143.7102  160.6284 C.ar    1  UNL1        0.1208
      9 N         141.9283  142.5883  159.6555 N.ar    1  UNL1       -0.2293
     10 C         142.4855  141.4186  160.4113 C.ar    1  UNL1        0.1188
     11 C         142.6180  141.8175  161.8512 C.ar    1  UNL1        0.0981
     12 N         142.1426  143.2339  161.9853 N.ar    1  UNL1       -0.3155
     13 C         142.1008  144.0335  163.2537 C.3     1  UNL1        0.0868
     14 C         143.3505  144.6784  163.7754 C.3     1  UNL1        0.0245
     15 C         140.8091  144.1881  164.0006 C.3     1  UNL1        0.0245
     16 N         141.7939  139.1506  166.2339 N.pl3   1  UNL1       -0.2825
     17 H         141.4325  138.2352  166.2100 H       1  UNL1        0.1551
     18 C         141.4156  140.0773  167.3511 C.ar    1  UNL1        0.0527
     19 C         142.3287  141.2048  167.7321 C.ar    1  UNL1        0.0150
     20 C         141.9503  142.1315  168.8492 C.ar    1  UNL1        0.0080
     21 C         140.6589  141.9308  169.5854 C.ar    1  UNL1        0.0806
     22 C         139.7459  140.8034  169.2044 C.ar    1  UNL1        0.1457
     23 F         138.4545  140.6027  169.9406 F       1  UNL1       -0.2040
     24 C         140.1242  139.8766  168.0873 C.ar    1  UNL1        0.0444
     25 C         140.2806  142.8576  170.7026 C.2     1  UNL1        0.2449
     26 N         139.9527  144.2915  170.4090 N.am    1  UNL1       -0.3253
     27 O         140.2303  142.3504  172.1133 O.2     1  UNL1       -0.2703
     28 H         139.9857  144.6244  169.4831 H       1  UNL1        0.1453
     29 H         139.7044  144.8998  171.1422 H       1  UNL1        0.1453
@<TRIPOS>BOND
     1     7     8    1
     2     8     9   ar
     3     9    10   ar
     4    10    11   ar
     5    11     1    1
     6     1     2   ar
     7     2     3   ar
     8     3     4   ar
     9     4     5   ar
    10     5    16    1
    11    16    18    1
    12    18    19   ar
    13    19    20   ar
    14    20    21   ar
    15    21    25    1
    16    25    26   am
    17    25    27    2
    18    21    22   ar
    19    22    23    1
    20    22    24   ar
    21     5     6   ar
    22    11    12   ar
    23    12    13    1
    24    13    14    1
    25    13    15    1
    26    12     8   ar
    27     6     1   ar
    28    24    18   ar
    29    16    17    1
    30    26    28    1
    31    26    29    1
@<TRIPOS>MOLECULE
*****
 29 31 0 0 0
SMALL
GASTEIGER

@<TRIPOS>ATOM
      1 C         141.8346  141.1316  162.2488 C.ar    1  UNL1        0.1030
      2 C         141.4535  140.0534  161.2782 C.ar    1  UNL1        0.0414
      3 C         141.5827  138.6114  161.6704 C.ar    1  UNL1        0.1034
      4 N         142.0930  138.2476  163.0333 N.ar    1  UNL1       -0.2120
      5 C         142.4740  139.3259  164.0039 C.ar    1  UNL1        0.2207
      6 N         142.3448  140.7679  163.6116 N.ar    1  UNL1       -0.2120
      7 C         139.9885  146.0529  161.7452 C.3     1  UNL1        0.0718
      8 C         140.8568  144.8358  161.6251 C.ar    1  UNL1        0.1208
      9 N         142.1565  144.7498  160.8810 N.ar    1  UNL1       -0.2293
     10 C         142.6809  143.3518  161.0241 C.ar    1  UNL1        0.1188
     11 C         141.7054  142.5737  161.8566 C.ar    1  UNL1        0.0981
     12 N         140.5781  143.4909  162.2281 N.ar    1  UNL1       -0.3155
     13 C         139.3820  143.1271  163.0569 C.3     1  UNL1        0.0868
     14 C         138.0910  142.7570  162.3890 C.3     1  UNL1        0.0245
     15 C         139.4771  143.1334  164.5540 C.3     1  UNL1        0.0245
     16 N         142.9843  138.9621  165.3667 N.pl3   1  UNL1       -0.2825
     17 H         143.8461  138.4956  165.4613 H       1  UNL1        0.1551
     18 C         142.1815  139.3090  166.5854 C.ar    1  UNL1        0.0527
     19 C         140.7217  139.6287  166.4559 C.ar    1  UNL1        0.0150
     20 C         139.9189  139.9757  167.6745 C.ar    1  UNL1        0.0080
     21 C         140.5759  140.0029  169.0227 C.ar    1  UNL1        0.0806
     22 C         142.0357  139.6833  169.1522 C.ar    1  UNL1        0.1457
     23 F         142.6927  139.7105  170.5004 F       1  UNL1       -0.2040
     24 C         142.8386  139.3363  167.9335 C.ar    1  UNL1        0.0444
     25 C         139.7731  140.3499  170.2414 C.2     1  UNL1        0.2449
     26 N         139.5879  139.3360  171.3312 N.am    1  UNL1       -0.3253
     27 O         139.1555  141.7108  170.3702 O.2     1  UNL1       -0.2703
     28 H         139.9933  138.4428  171.2466 H       1  UNL1        0.1453
     29 H         139.0610  139.5637  172.1310 H       1  UNL1        0.1453
@<TRIPOS>BOND
     1     7     8    1
     2     8     9   ar
     3     9    10   ar
     4    10    11   ar
     5    11     1    1
     6     1     2   ar
     7     2     3   ar
     8     3     4   ar
     9     4     5   ar
    10     5    16    1
    11    16    18    1
    12    18    19   ar
    13    19    20   ar
    14    20    21   ar
    15    21    25    1
    16    25    26   am
    17    25    27    2
    18    21    22   ar
    19    22    23    1
    20    22    24   ar
    21     5     6   ar
    22    11    12   ar
    23    12    13    1
    24    13    14    1
    25    13    15    1
    26    12     8   ar
    27     6     1   ar
    28    24    18   ar
    29    16    17    1
    30    26    28    1
    31    26    29    1
@<TRIPOS>MOLECULE
*****
 29 31 0 0 0
SMALL
GASTEIGER

@<TRIPOS>ATOM
      1 C         140.6891  140.1822  163.1088 C.ar    1  UNL1        0.1030
      2 C         140.6559  138.8984  162.3338 C.ar    1  UNL1        0.0414
      3 C         139.8980  137.7193  162.8679 C.ar    1  UNL1        0.1034
      4 N         139.1733  137.8241  164.1771 N.ar    1  UNL1       -0.2120
      5 C         139.2066  139.1079  164.9521 C.ar    1  UNL1        0.2207
      6 N         139.9645  140.2870  164.4179 N.ar    1  UNL1       -0.2120
      7 C         144.1938  144.1031  162.6342 C.3     1  UNL1        0.0718
      8 C         143.0580  143.1635  162.3565 C.ar    1  UNL1        0.1208
      9 N         142.1686  143.1881  161.1487 N.ar    1  UNL1       -0.2293
     10 C         141.1731  142.0742  161.2836 C.ar    1  UNL1        0.1188
     11 C         141.4470  141.3613  162.5746 C.ar    1  UNL1        0.0981
     12 N         142.6120  142.0346  163.2377 N.ar    1  UNL1       -0.3155
     13 C         143.2236  141.6470  164.5513 C.3     1  UNL1        0.0868
     14 C         144.0906  140.4265  164.6440 C.3     1  UNL1        0.0245
     15 C         142.9681  142.4799  165.7724 C.3     1  UNL1        0.0245
     16 N         138.4819  139.2127  166.2613 N.pl3   1  UNL1       -0.2825
     17 H         137.5252  138.9866  166.3138 H       1  UNL1        0.1551
     18 C         139.2149  139.6620  167.4904 C.ar    1  UNL1        0.0527
     19 C         138.4800  139.8111  168.7895 C.ar    1  UNL1        0.0150
     20 C         139.2130  140.2604  170.0186 C.ar    1  UNL1        0.0080
     21 C         140.6810  140.5605  169.9487 C.ar    1  UNL1        0.0806
     22 C         141.4160  140.4114  168.6497 C.ar    1  UNL1        0.1457
     23 F         142.8840  140.7115  168.5798 F       1  UNL1       -0.2040
     24 C         140.6829  139.9621  167.4205 C.ar    1  UNL1        0.0444
     25 C         141.4140  141.0098  171.1779 C.2     1  UNL1        0.2449
     26 N         142.7179  140.3685  171.5500 N.am    1  UNL1       -0.3253
     27 O         140.8430  142.1004  172.0350 O.2     1  UNL1       -0.2703
     28 H         143.0927  139.6527  170.9875 H       1  UNL1        0.1453
     29 H         143.1990  140.6634  172.3567 H       1  UNL1        0.1453
@<TRIPOS>BOND
     1     7     8    1
     2     8     9   ar
     3     9    10   ar
     4    10    11   ar
     5    11     1    1
     6     1     2   ar
     7     2     3   ar
     8     3     4   ar
     9     4     5   ar
    10     5    16    1
    11    16    18    1
    12    18    19   ar
    13    19    20   ar
    14    20    21   ar
    15    21    25    1
    16    25    26   am
    17    25    27    2
    18    21    22   ar
    19    22    23    1
    20    22    24   ar
    21     5     6   ar
    22    11    12   ar
    23    12    13    1
    24    13    14    1
    25    13    15    1
    26    12     8   ar
    27     6     1   ar
    28    24    18   ar
    29    16    17    1
    30    26    28    1
    31    26    29    1
@<TRIPOS>MOLECULE
*****
 29 31 0 0 0
SMALL
GASTEIGER

@<TRIPOS>ATOM
      1 C         142.3844  140.5446  162.9281 C.ar    1  UNL1        0.1030
      2 C         143.7236  140.3131  162.2933 C.ar    1  UNL1        0.0414
      3 C         144.9744  140.7331  163.0068 C.ar    1  UNL1        0.1034
      4 N         144.8860  141.3845  164.3551 N.ar    1  UNL1       -0.2120
      5 C         143.5468  141.6160  164.9898 C.ar    1  UNL1        0.2207
      6 N         142.2960  141.1960  164.2763 N.ar    1  UNL1       -0.2120
      7 C         137.8518  138.1040  161.7531 C.3     1  UNL1        0.0718
      8 C         139.0502  139.0028  161.6745 C.ar    1  UNL1        0.1208
      9 N         139.3673  139.9538  160.5586 N.ar    1  UNL1       -0.2293
     10 C         140.6549  140.6471  160.8925 C.ar    1  UNL1        0.1188
     11 C         141.1336  140.1245  162.2145 C.ar    1  UNL1        0.0981
     12 N         140.1418  139.1083  162.6979 N.ar    1  UNL1       -0.3155
     13 C         140.2266  138.3336  163.9795 C.3     1  UNL1        0.0868
     14 C         141.1420  137.1498  164.0812 C.3     1  UNL1        0.0245
     15 C         139.3959  138.7429  165.1596 C.3     1  UNL1        0.0245
     16 N         143.4584  142.2675  166.3381 N.pl3   1  UNL1       -0.2825
     17 H         144.0488  143.0236  166.5591 H       1  UNL1        0.1551
     18 C         142.4703  141.7669  167.3495 C.ar    1  UNL1        0.0527
     19 C         142.3116  140.2927  167.5772 C.ar    1  UNL1        0.0150
     20 C         141.3236  139.7922  168.5887 C.ar    1  UNL1        0.0080
     21 C         140.4942  140.7657  169.3726 C.ar    1  UNL1        0.0806
     22 C         140.6529  142.2397  169.1450 C.ar    1  UNL1        0.1457
     23 F         139.8236  143.2133  169.9289 F       1  UNL1       -0.2040
     24 C         141.6410  142.7404  168.1334 C.ar    1  UNL1        0.0444
     25 C         139.5061  140.2650  170.3841 C.2     1  UNL1        0.2449
     26 N         139.9491  139.3196  171.4611 N.am    1  UNL1       -0.3253
     27 O         138.0751  140.7098  170.3186 O.2     1  UNL1       -0.2703
     28 H         140.8884  139.0277  171.5041 H       1  UNL1        0.1453
     29 H         139.3006  138.9910  172.1250 H       1  UNL1        0.1453
@<TRIPOS>BOND
     1     7     8    1
     2     8     9   ar
     3     9    10   ar
     4    10    11   ar
     5    11     1    1
     6     1     2   ar
     7     2     3   ar
     8     3     4   ar
     9     4     5   ar
    10     5    16    1
    11    16    18    1
    12    18    19   ar
    13    19    20   ar
    14    20    21   ar
    15    21    25    1
    16    25    26   am
    17    25    27    2
    18    21    22   ar
    19    22    23    1
    20    22    24   ar
    21     5     6   ar
    22    11    12   ar
    23    12    13    1
    24    13    14    1
    25    13    15    1
    26    12     8   ar
    27     6     1   ar
    28    24    18   ar
    29    16    17    1
    30    26    28    1
    31    26    29    1
@<TRIPOS>MOLECULE
*****
 29 31 0 0 0
SMALL
GASTEIGER

@<TRIPOS>ATOM
      1 C         142.9429  142.9989  162.8324 C.ar    1  UNL1        0.1030
      2 C         144.4157  142.9841  162.5484 C.ar    1  UNL1        0.0414
      3 C         145.3187  142.0661  163.3177 C.ar    1  UNL1        0.1034
      4 N         144.7489  141.1628  164.3711 N.ar    1  UNL1       -0.2120
      5 C         143.2761  141.1776  164.6551 C.ar    1  UNL1        0.2207
      6 N         142.3731  142.0956  163.8858 N.ar    1  UNL1       -0.2120
      7 C         140.2282  145.2324  158.8925 C.3     1  UNL1        0.0718
      8 C         140.7921  144.9435  160.2522 C.ar    1  UNL1        0.1208
      9 N         140.5084  145.7157  161.5065 N.ar    1  UNL1       -0.2293
     10 C         141.2796  145.0812  162.6257 C.ar    1  UNL1        0.1188
     11 C         142.0399  143.9169  162.0631 C.ar    1  UNL1        0.0981
     12 N         141.7386  143.8318  160.5962 N.ar    1  UNL1       -0.3155
     13 C         142.2873  142.8138  159.6409 C.3     1  UNL1        0.0868
     14 C         143.4170  143.1781  158.7239 C.3     1  UNL1        0.0245
     15 C         141.7062  141.4314  159.6027 C.3     1  UNL1        0.0245
     16 N         142.7063  140.2744  165.7084 N.pl3   1  UNL1       -0.2825
     17 H         142.7149  139.2987  165.5774 H       1  UNL1        0.1551
     18 C         142.1234  140.8577  166.9614 C.ar    1  UNL1        0.0527
     19 C         142.8425  141.9605  167.6804 C.ar    1  UNL1        0.0150
     20 C         142.2597  142.5438  168.9333 C.ar    1  UNL1        0.0080
     21 C         140.9577  142.0245  169.4673 C.ar    1  UNL1        0.0806
     22 C         140.2386  140.9218  168.7484 C.ar    1  UNL1        0.1457
     23 F         138.9366  140.4024  169.2824 F       1  UNL1       -0.2040
     24 C         140.8215  140.3384  167.4954 C.ar    1  UNL1        0.0444
     25 C         140.3749  142.6079  170.7204 C.2     1  UNL1        0.2449
     26 N         139.6288  143.9080  170.6658 N.am    1  UNL1       -0.3253
     27 O         140.5381  141.8911  172.0279 O.2     1  UNL1       -0.2703
     28 H         139.5217  144.3785  169.8077 H       1  UNL1        0.1453
     29 H         139.2463  144.2909  171.4882 H       1  UNL1        0.1453
@<TRIPOS>BOND
     1     7     8    1
     2     8     9   ar
     3     9    10   ar
     4    10    11   ar
     5    11     1    1
     6     1     2   ar
     7     2     3   ar
     8     3     4   ar
     9     4     5   ar
    10     5    16    1
    11    16    18    1
    12    18    19   ar
    13    19    20   ar
    14    20    21   ar
    15    21    25    1
    16    25    26   am
    17    25    27    2
    18    21    22   ar
    19    22    23    1
    20    22    24   ar
    21     5     6   ar
    22    11    12   ar
    23    12    13    1
    24    13    14    1
    25    13    15    1
    26    12     8   ar
    27     6     1   ar
    28    24    18   ar
    29    16    17    1
    30    26    28    1
    31    26    29    1
