@<TRIPOS>MOLECULE
*****
 40 42 0 0 0
SMALL
GASTEIGER

@<TRIPOS>ATOM
      1 C         142.7467  143.5061  164.5623 C.3     1  UNL1        0.2016
      2 C         141.4045  142.8395  164.4963 C.3     1  UNL1        0.0679
      3 C         140.2740  143.5004  163.7647 C.3     1  UNL1        0.0973
      4 N         140.4857  144.8279  163.0991 N.am    1  UNL1       -0.2762
      5 C         139.3552  145.4888  162.3675 C.2     1  UNL1        0.2301
      6 O         139.5669  146.8163  161.7019 O.2     1  UNL1       -0.2745
      7 C         141.8278  145.4944  163.1651 C.3     1  UNL1        0.1323
      8 C         142.9583  144.8336  163.8967 C.3     1  UNL1        0.2202
      9 F         144.3004  145.5001  163.9627 F       1  UNL1       -0.2316
     10 O         143.8771  142.8452  165.2939 O.3     1  UNL1       -0.4760
     11 C         142.9984  139.5585  167.3373 C.ar    1  UNL1        0.1417
     12 C         143.5812  138.5045  166.4432 C.ar    1  UNL1        0.0373
     13 C         144.2627  138.8974  165.1660 C.ar    1  UNL1        0.0107
     14 C         144.3613  140.3443  164.7829 C.ar    1  UNL1        0.0872
     15 C         143.7785  141.3982  165.6770 C.ar    1  UNL1        0.1458
     16 C         143.0970  141.0053  166.9542 C.ar    1  UNL1        0.0739
     17 C         145.0428  140.7372  163.5057 C.2     1  UNL1        0.2457
     18 N         146.1208  141.7801  163.5209 N.am    1  UNL1       -0.3252
     19 O         144.6463  140.0872  162.2134 O.2     1  UNL1       -0.2703
     20 H         146.3811  142.2067  164.3691 H       1  UNL1        0.1453
     21 H         146.5681  142.0379  162.6826 H       1  UNL1        0.1453
     22 O         142.3169  139.1656  168.6145 O.3     1  UNL1       -0.4728
     23 C         141.0519  139.8547  169.0323 C.3     1  UNL1        0.2318
     24 C         139.3682  140.3492  170.2243 C.3     1  UNL1        0.0332
     25 C         140.8437  140.2343  170.4685 C.3     1  UNL1        0.1286
     26 C         142.3192  140.1193  170.7128 C.3     1  UNL1        0.0332
     27 O         140.6355  140.6138  171.9047 O.3     1  UNL1       -0.3831
     28 H         140.3043  141.5242  171.9538 H       1  UNL1        0.2104
     29 C         138.0131  144.8222  162.3016 C.3     1  UNL1        0.1116
     30 C         137.9217  143.3280  162.2051 C.ar    1  UNL1       -0.0129
     31 C         137.4101  142.5313  163.3685 C.ar    1  UNL1       -0.0007
     32 C         137.3187  141.0373  163.2722 C.ar    1  UNL1        0.0369
     33 C         137.7388  140.3399  162.0124 C.ar    1  UNL1        0.1468
     34 C         138.2504  141.1366  160.8490 C.ar    1  UNL1        0.0369
     35 C         138.3419  142.6307  160.9453 C.ar    1  UNL1       -0.0007
     36 O         137.6474  138.8457  161.9159 O.3     1  UNL1       -0.4045
     37 C         138.8238  137.9963  162.2961 C.3     1  UNL1        0.5753
     38 F         140.0003  137.1469  162.6762 F       1  UNL1       -0.1328
     39 F         138.3928  138.0419  163.7321 F       1  UNL1       -0.1328
     40 F         139.2549  137.9507  160.8601 F       1  UNL1       -0.1328
@<TRIPOS>BOND
     1    24    25    1
     2    25    26    1
     3    25    27    1
     4    25    23    1
     5    23    22    1
     6    22    11    1
     7    11    12   ar
     8    12    13   ar
     9    13    14   ar
    10    14    17    1
    11    17    18   am
    12    17    19    2
    13    14    15   ar
    14    15    10    1
    15     1    10    1
    16     1     2    1
    17     2     3    1
    18     3     4    1
    19     4     5   am
    20     5     6    2
    21     5    29    1
    22    29    30    1
    23    30    31   ar
    24    31    32   ar
    25    32    33   ar
    26    33    36    1
    27    36    37    1
    28    37    38    1
    29    37    39    1
    30    37    40    1
    31    33    34   ar
    32    34    35   ar
    33     4     7    1
    34     7     8    1
    35     8     9    1
    36    15    16   ar
    37    16    11   ar
    38     8     1    1
    39    35    30   ar
    40    27    28    1
    41    18    20    1
    42    18    21    1
@<TRIPOS>MOLECULE
*****
 40 42 0 0 0
SMALL
GASTEIGER

@<TRIPOS>ATOM
      1 C         138.1021  140.1125  160.8502 C.3     1  UNL1        0.2016
      2 C         137.5578  140.8323  162.0483 C.3     1  UNL1        0.0679
      3 C         137.7823  140.2764  163.4233 C.3     1  UNL1        0.0973
      4 N         138.5511  139.0006  163.6002 N.am    1  UNL1       -0.2762
      5 C         138.7757  138.4447  164.9751 C.2     1  UNL1        0.2301
      6 O         139.5445  137.1689  165.1520 O.2     1  UNL1       -0.2745
      7 C         139.0954  138.2807  162.4020 C.3     1  UNL1        0.1323
      8 C         138.8709  138.8366  161.0271 C.3     1  UNL1        0.2202
      9 F         139.4152  138.1168  159.8289 F       1  UNL1       -0.2316
     10 O         137.8776  140.6683  159.4753 O.3     1  UNL1       -0.4760
     11 C         140.1552  143.9161  159.5969 C.ar    1  UNL1        0.1417
     12 C         139.9776  144.4393  158.2024 C.ar    1  UNL1        0.0373
     13 C         139.1000  143.7055  157.2322 C.ar    1  UNL1        0.0107
     14 C         138.4000  142.4485  157.6564 C.ar    1  UNL1        0.0872
     15 C         138.5776  141.9254  159.0509 C.ar    1  UNL1        0.1458
     16 C         139.4552  142.6591  160.0212 C.ar    1  UNL1        0.0739
     17 C         137.5224  141.7148  156.6862 C.2     1  UNL1        0.2457
     18 N         137.4978  140.2150  156.6831 N.am    1  UNL1       -0.3252
     19 O         136.6693  142.4808  155.7190 O.2     1  UNL1       -0.2703
     20 H         138.0576  139.7122  157.3180 H       1  UNL1        0.1453
     21 H         136.9218  139.7334  156.0463 H       1  UNL1        0.1453
     22 O         141.0328  144.6499  160.5672 O.3     1  UNL1       -0.4728
     23 C         140.4219  145.5605  161.5906 C.3     1  UNL1        0.2318
     24 C         138.7866  144.9932  162.8170 C.3     1  UNL1        0.0332
     25 C         140.2704  145.0992  163.0099 C.3     1  UNL1        0.1286
     26 C         141.7542  145.2053  163.2027 C.3     1  UNL1        0.0332
     27 O         140.1189  144.6380  164.4291 O.3     1  UNL1       -0.3831
     28 H         139.6148  145.2972  164.9313 H       1  UNL1        0.2104
     29 C         138.2314  139.1646  166.1732 C.3     1  UNL1        0.1116
     30 C         139.1034  140.1177  166.9357 C.ar    1  UNL1       -0.0129
     31 C         139.3153  139.9262  168.4082 C.ar    1  UNL1       -0.0007
     32 C         140.1872  140.8792  169.1707 C.ar    1  UNL1        0.0369
     33 C         140.8473  142.0238  168.4606 C.ar    1  UNL1        0.1468
     34 C         140.6353  142.2153  166.9880 C.ar    1  UNL1        0.0369
     35 C         139.7634  141.2622  166.2256 C.ar    1  UNL1       -0.0007
     36 O         141.7193  142.9769  169.2230 O.3     1  UNL1       -0.4045
     37 C         143.0948  142.5574  169.6497 C.3     1  UNL1        0.5753
     38 F         144.4703  142.1380  170.0764 F       1  UNL1       -0.1328
     39 F         142.6299  142.4815  171.0738 F       1  UNL1       -0.1328
     40 F         143.5597  142.6333  168.2256 F       1  UNL1       -0.1328
@<TRIPOS>BOND
     1    24    25    1
     2    25    26    1
     3    25    27    1
     4    25    23    1
     5    23    22    1
     6    22    11    1
     7    11    12   ar
     8    12    13   ar
     9    13    14   ar
    10    14    17    1
    11    17    18   am
    12    17    19    2
    13    14    15   ar
    14    15    10    1
    15     1    10    1
    16     1     2    1
    17     2     3    1
    18     3     4    1
    19     4     5   am
    20     5     6    2
    21     5    29    1
    22    29    30    1
    23    30    31   ar
    24    31    32   ar
    25    32    33   ar
    26    33    36    1
    27    36    37    1
    28    37    38    1
    29    37    39    1
    30    37    40    1
    31    33    34   ar
    32    34    35   ar
    33     4     7    1
    34     7     8    1
    35     8     9    1
    36    15    16   ar
    37    16    11   ar
    38     8     1    1
    39    35    30   ar
    40    27    28    1
    41    18    20    1
    42    18    21    1
@<TRIPOS>MOLECULE
*****
 40 42 0 0 0
SMALL
GASTEIGER

@<TRIPOS>ATOM
      1 C         143.7124  139.3666  160.4051 C.3     1  UNL1        0.2016
      2 C         144.3502  139.8512  161.6734 C.3     1  UNL1        0.0679
      3 C         143.8549  139.3546  162.9993 C.3     1  UNL1        0.0973
      4 N         142.7218  138.3734  163.0570 N.am    1  UNL1       -0.2762
      5 C         142.2266  137.8767  164.3829 C.2     1  UNL1        0.2301
      6 O         141.0935  136.8955  164.4406 O.2     1  UNL1       -0.2745
      7 C         142.0840  137.8887  161.7888 C.3     1  UNL1        0.1323
      8 C         142.5793  138.3853  160.4629 C.3     1  UNL1        0.2202
      9 F         141.9415  137.9007  159.1947 F       1  UNL1       -0.2316
     10 O         144.2076  139.8632  159.0792 O.3     1  UNL1       -0.4760
     11 C         142.7134  143.5361  158.9142 C.ar    1  UNL1        0.1417
     12 C         142.6969  143.7691  157.4325 C.ar    1  UNL1        0.0373
     13 C         143.1840  142.7002  156.4997 C.ar    1  UNL1        0.0107
     14 C         143.6876  141.3982  157.0486 C.ar    1  UNL1        0.0872
     15 C         143.7041  141.1652  158.5303 C.ar    1  UNL1        0.1458
     16 C         143.2170  142.2342  159.4631 C.ar    1  UNL1        0.0739
     17 C         144.1746  140.3293  156.1158 C.2     1  UNL1        0.2457
     18 N         145.5779  139.8127  156.2344 N.am    1  UNL1       -0.3252
     19 O         143.2585  139.7769  155.0644 O.2     1  UNL1       -0.2703
     20 H         146.1792  140.1753  156.9245 H       1  UNL1        0.1453
     21 H         145.8975  139.1112  155.6222 H       1  UNL1        0.1453
     22 O         142.2263  144.6051  159.8470 O.3     1  UNL1       -0.4728
     23 C         141.4207  144.2347  161.0568 C.3     1  UNL1        0.2318
     24 C         140.1650  145.7050  161.9293 C.3     1  UNL1        0.0332
     25 C         141.4835  145.0871  162.2895 C.3     1  UNL1        0.1286
     26 C         142.8020  144.4691  162.6497 C.3     1  UNL1        0.0332
     27 O         141.5463  145.9395  163.5222 O.3     1  UNL1       -0.3831
     28 H         141.6126  146.8729  163.2668 H       1  UNL1        0.2104
     29 C         142.8644  138.3614  165.6511 C.3     1  UNL1        0.1116
     30 C         142.0944  139.2442  166.5880 C.ar    1  UNL1       -0.0129
     31 C         140.8362  139.9153  166.1225 C.ar    1  UNL1       -0.0007
     32 C         140.0662  140.7981  167.0593 C.ar    1  UNL1        0.0369
     33 C         140.5544  141.0098  168.4617 C.ar    1  UNL1        0.1468
     34 C         141.8126  140.3388  168.9273 C.ar    1  UNL1        0.0369
     35 C         142.5825  139.4560  167.9904 C.ar    1  UNL1       -0.0007
     36 O         139.7844  141.8927  169.3987 O.3     1  UNL1       -0.4045
     37 C         140.3138  143.2501  169.7554 C.3     1  UNL1        0.5753
     38 F         140.8432  144.6075  170.1121 F       1  UNL1       -0.1328
     39 F         140.5878  142.7762  171.1519 F       1  UNL1       -0.1328
     40 F         140.0398  143.7240  168.3588 F       1  UNL1       -0.1328
@<TRIPOS>BOND
     1    24    25    1
     2    25    26    1
     3    25    27    1
     4    25    23    1
     5    23    22    1
     6    22    11    1
     7    11    12   ar
     8    12    13   ar
     9    13    14   ar
    10    14    17    1
    11    17    18   am
    12    17    19    2
    13    14    15   ar
    14    15    10    1
    15     1    10    1
    16     1     2    1
    17     2     3    1
    18     3     4    1
    19     4     5   am
    20     5     6    2
    21     5    29    1
    22    29    30    1
    23    30    31   ar
    24    31    32   ar
    25    32    33   ar
    26    33    36    1
    27    36    37    1
    28    37    38    1
    29    37    39    1
    30    37    40    1
    31    33    34   ar
    32    34    35   ar
    33     4     7    1
    34     7     8    1
    35     8     9    1
    36    15    16   ar
    37    16    11   ar
    38     8     1    1
    39    35    30   ar
    40    27    28    1
    41    18    20    1
    42    18    21    1
@<TRIPOS>MOLECULE
*****
 40 42 0 0 0
SMALL
GASTEIGER

@<TRIPOS>ATOM
      1 C         142.0542  138.9570  159.5711 C.3     1  UNL1        0.2016
      2 C         141.1242  138.3818  160.5979 C.3     1  UNL1        0.0679
      3 C         141.5282  138.3508  162.0422 C.3     1  UNL1        0.0973
      4 N         142.8621  138.8950  162.4596 N.am    1  UNL1       -0.2762
      5 C         143.2661  138.8640  163.9039 C.2     1  UNL1        0.2301
      6 O         144.6001  139.4083  164.3214 O.2     1  UNL1       -0.2745
      7 C         143.7921  139.4703  161.4329 C.3     1  UNL1        0.1323
      8 C         143.3882  139.5013  159.9887 C.3     1  UNL1        0.2202
      9 F         144.3182  140.0765  158.9619 F       1  UNL1       -0.2316
     10 O         141.6502  138.9881  158.1269 O.3     1  UNL1       -0.4760
     11 C         142.8572  135.5045  156.6579 C.ar    1  UNL1        0.1417
     12 C         141.7588  135.2139  155.6787 C.ar    1  UNL1        0.0373
     13 C         140.6241  136.1813  155.5155 C.ar    1  UNL1        0.0107
     14 C         140.5879  137.4394  156.3316 C.ar    1  UNL1        0.0872
     15 C         141.6864  137.7300  157.3108 C.ar    1  UNL1        0.1458
     16 C         142.8210  136.7625  157.4740 C.ar    1  UNL1        0.0739
     17 C         139.4533  138.4068  156.1684 C.2     1  UNL1        0.2457
     18 N         138.8895  139.1106  157.3670 N.am    1  UNL1       -0.3252
     19 O         138.8824  138.6705  154.8066 O.2     1  UNL1       -0.2703
     20 H         139.2642  138.9376  158.2608 H       1  UNL1        0.1453
     21 H         138.1448  139.7456  157.2599 H       1  UNL1        0.1453
     22 O         143.9919  134.5370  156.8211 O.3     1  UNL1       -0.4728
     23 C         143.9175  133.1799  156.1865 C.3     1  UNL1        0.2318
     24 C         145.0029  132.3232  157.7952 C.3     1  UNL1        0.0332
     25 C         143.7571  131.9591  157.0432 C.3     1  UNL1        0.1286
     26 C         142.5113  131.5951  156.2913 C.3     1  UNL1        0.0332
     27 O         143.5967  130.7384  157.9000 O.3     1  UNL1       -0.3831
     28 H         144.3368  130.1319  157.7405 H       1  UNL1        0.2104
     29 C         142.3361  138.2888  164.9306 C.3     1  UNL1        0.1116
     30 C         142.0103  139.0701  166.1690 C.ar    1  UNL1       -0.0129
     31 C         140.7474  139.8766  166.2364 C.ar    1  UNL1       -0.0007
     32 C         140.4217  140.6579  167.4747 C.ar    1  UNL1        0.0369
     33 C         141.3589  140.6326  168.6456 C.ar    1  UNL1        0.1468
     34 C         142.6218  139.8261  168.5782 C.ar    1  UNL1        0.0369
     35 C         142.9475  139.0448  167.3399 C.ar    1  UNL1       -0.0007
     36 O         141.0332  141.4139  169.8840 O.3     1  UNL1       -0.4045
     37 C         140.6593  142.8628  169.7800 C.3     1  UNL1        0.5753
     38 F         140.2855  144.3118  169.6760 F       1  UNL1       -0.1328
     39 F         142.0236  143.1761  169.2410 F       1  UNL1       -0.1328
     40 F         139.2950  142.5496  170.3190 F       1  UNL1       -0.1328
@<TRIPOS>BOND
     1    24    25    1
     2    25    26    1
     3    25    27    1
     4    25    23    1
     5    23    22    1
     6    22    11    1
     7    11    12   ar
     8    12    13   ar
     9    13    14   ar
    10    14    17    1
    11    17    18   am
    12    17    19    2
    13    14    15   ar
    14    15    10    1
    15     1    10    1
    16     1     2    1
    17     2     3    1
    18     3     4    1
    19     4     5   am
    20     5     6    2
    21     5    29    1
    22    29    30    1
    23    30    31   ar
    24    31    32   ar
    25    32    33   ar
    26    33    36    1
    27    36    37    1
    28    37    38    1
    29    37    39    1
    30    37    40    1
    31    33    34   ar
    32    34    35   ar
    33     4     7    1
    34     7     8    1
    35     8     9    1
    36    15    16   ar
    37    16    11   ar
    38     8     1    1
    39    35    30   ar
    40    27    28    1
    41    18    20    1
    42    18    21    1
@<TRIPOS>MOLECULE
*****
 40 42 0 0 0
SMALL
GASTEIGER

@<TRIPOS>ATOM
      1 C         140.7575  143.6744  165.1412 C.3     1  UNL1        0.2016
      2 C         141.7879  143.3012  164.1170 C.3     1  UNL1        0.0679
      3 C         141.6906  143.8451  162.7225 C.3     1  UNL1        0.0973
      4 N         140.5628  144.7621  162.3521 N.am    1  UNL1       -0.2762
      5 C         140.4655  145.3059  160.9576 C.2     1  UNL1        0.2301
      6 O         139.3377  146.2230  160.5872 O.2     1  UNL1       -0.2745
      7 C         139.5324  145.1353  163.3763 C.3     1  UNL1        0.1323
      8 C         139.6297  144.5915  164.7708 C.3     1  UNL1        0.2202
      9 F         138.5993  144.9647  165.7950 F       1  UNL1       -0.2316
     10 O         140.8548  143.1306  166.5357 O.3     1  UNL1       -0.4760
     11 C         138.9127  139.6894  166.1661 C.ar    1  UNL1        0.1417
     12 C         138.7636  139.2921  167.6048 C.ar    1  UNL1        0.0373
     13 C         139.3115  140.1743  168.6872 C.ar    1  UNL1        0.0107
     14 C         140.0086  141.4538  168.3308 C.ar    1  UNL1        0.0872
     15 C         140.1577  141.8510  166.8921 C.ar    1  UNL1        0.1458
     16 C         139.6098  140.9688  165.8098 C.ar    1  UNL1        0.0739
     17 C         140.5565  142.3360  169.4132 C.2     1  UNL1        0.2457
     18 N         140.2144  143.7962  169.4356 N.am    1  UNL1       -0.3252
     19 O         141.4466  141.7579  170.4732 O.2     1  UNL1       -0.2703
     20 H         139.6302  144.1756  168.7399 H       1  UNL1        0.1453
     21 H         140.5740  144.3752  170.1460 H       1  UNL1        0.1453
     22 O         138.3648  138.8072  165.0838 O.3     1  UNL1       -0.4728
     23 C         139.0710  137.5334  164.7251 C.3     1  UNL1        0.2318
     24 C         138.7370  137.8754  162.6583 C.3     1  UNL1        0.0332
     25 C         139.9178  137.4678  163.4887 C.3     1  UNL1        0.1286
     26 C         141.0986  137.0603  164.3192 C.3     1  UNL1        0.0332
     27 O         140.7647  137.4023  162.2524 O.3     1  UNL1       -0.3831
     28 H         140.4366  136.6971  161.6728 H       1  UNL1        0.2104
     29 C         141.4960  144.9327  159.9334 C.3     1  UNL1        0.1116
     30 C         141.4932  143.5580  159.3332 C.ar    1  UNL1       -0.0129
     31 C         140.1964  142.8340  159.1231 C.ar    1  UNL1       -0.0007
     32 C         140.1937  141.4593  158.5229 C.ar    1  UNL1        0.0369
     33 C         141.4876  140.8088  158.1327 C.ar    1  UNL1        0.1468
     34 C         142.7844  141.5328  158.3427 C.ar    1  UNL1        0.0369
     35 C         142.7872  142.9075  158.9430 C.ar    1  UNL1       -0.0007
     36 O         141.4849  139.4341  157.5324 O.3     1  UNL1       -0.4045
     37 C         142.1845  138.3079  158.2341 C.3     1  UNL1        0.5753
     38 F         142.8842  137.1818  158.9358 F       1  UNL1       -0.1328
     39 F         143.2650  138.3310  157.1938 F       1  UNL1       -0.1328
     40 F         141.1041  138.2849  159.2744 F       1  UNL1       -0.1328
@<TRIPOS>BOND
     1    24    25    1
     2    25    26    1
     3    25    27    1
     4    25    23    1
     5    23    22    1
     6    22    11    1
     7    11    12   ar
     8    12    13   ar
     9    13    14   ar
    10    14    17    1
    11    17    18   am
    12    17    19    2
    13    14    15   ar
    14    15    10    1
    15     1    10    1
    16     1     2    1
    17     2     3    1
    18     3     4    1
    19     4     5   am
    20     5     6    2
    21     5    29    1
    22    29    30    1
    23    30    31   ar
    24    31    32   ar
    25    32    33   ar
    26    33    36    1
    27    36    37    1
    28    37    38    1
    29    37    39    1
    30    37    40    1
    31    33    34   ar
    32    34    35   ar
    33     4     7    1
    34     7     8    1
    35     8     9    1
    36    15    16   ar
    37    16    11   ar
    38     8     1    1
    39    35    30   ar
    40    27    28    1
    41    18    20    1
    42    18    21    1
@<TRIPOS>MOLECULE
*****
 40 42 0 0 0
SMALL
GASTEIGER

@<TRIPOS>ATOM
      1 C         143.2116  140.3034  166.4517 C.3     1  UNL1        0.2016
      2 C         143.0491  141.4855  165.5427 C.3     1  UNL1        0.0679
      3 C         143.3432  141.3512  164.0779 C.3     1  UNL1        0.0973
      4 N         143.7999  140.0349  163.5222 N.am    1  UNL1       -0.2762
      5 C         144.0941  139.9007  162.0575 C.2     1  UNL1        0.2301
      6 O         144.5508  138.5844  161.5018 O.2     1  UNL1       -0.2745
      7 C         143.9625  138.8529  164.4313 C.3     1  UNL1        0.1323
      8 C         143.6684  138.9871  165.8960 C.3     1  UNL1        0.2202
      9 F         143.8309  137.8051  166.8050 F       1  UNL1       -0.2316
     10 O         142.9175  140.4377  167.9164 O.3     1  UNL1       -0.4760
     11 C         139.0249  139.6681  167.9906 C.ar    1  UNL1        0.1417
     12 C         138.6933  140.0204  169.4105 C.ar    1  UNL1        0.0373
     13 C         139.7698  140.5117  170.3323 C.ar    1  UNL1        0.0107
     14 C         141.1778  140.6508  169.8343 C.ar    1  UNL1        0.0872
     15 C         141.5094  140.2986  168.4145 C.ar    1  UNL1        0.1458
     16 C         140.4329  139.8072  167.4927 C.ar    1  UNL1        0.0739
     17 C         142.2543  141.1421  170.7562 C.2     1  UNL1        0.2457
     18 N         143.6170  140.5163  170.7188 N.am    1  UNL1       -0.3252
     19 O         141.9681  142.2592  171.7154 O.2     1  UNL1       -0.2703
     20 H         143.8049  139.7831  170.0892 H       1  UNL1        0.1453
     21 H         144.3235  140.8388  171.3238 H       1  UNL1        0.1453
     22 O         137.9484  139.1768  167.0688 O.3     1  UNL1       -0.4728
     23 C         138.0599  139.4138  165.5919 C.3     1  UNL1        0.2318
     24 C         139.3605  139.6433  163.9318 C.3     1  UNL1        0.0332
     25 C         138.8693  138.4801  164.7415 C.3     1  UNL1        0.1286
     26 C         138.3780  137.3168  165.5511 C.3     1  UNL1        0.0332
     27 O         139.6786  137.5464  163.8911 O.3     1  UNL1       -0.3831
     28 H         139.3375  137.5583  162.9831 H       1  UNL1        0.2104
     29 C         143.9315  141.0828  161.1485 C.3     1  UNL1        0.1116
     30 C         142.7122  141.9498  161.2564 C.ar    1  UNL1       -0.0129
     31 C         142.8591  143.4277  161.4669 C.ar    1  UNL1       -0.0007
     32 C         141.6398  144.2947  161.5748 C.ar    1  UNL1        0.0369
     33 C         140.2737  143.6839  161.4722 C.ar    1  UNL1        0.1468
     34 C         140.1269  142.2060  161.2617 C.ar    1  UNL1        0.0369
     35 C         141.3461  141.3389  161.1538 C.ar    1  UNL1       -0.0007
     36 O         139.0544  144.5509  161.5801 O.3     1  UNL1       -0.4045
     37 C         138.2218  144.5222  162.8275 C.3     1  UNL1        0.5753
     38 F         137.3892  144.4936  164.0748 F       1  UNL1       -0.1328
     39 F         139.0985  145.5757  163.4369 F       1  UNL1       -0.1328
     40 F         137.3450  143.4687  162.2180 F       1  UNL1       -0.1328
@<TRIPOS>BOND
     1    24    25    1
     2    25    26    1
     3    25    27    1
     4    25    23    1
     5    23    22    1
     6    22    11    1
     7    11    12   ar
     8    12    13   ar
     9    13    14   ar
    10    14    17    1
    11    17    18   am
    12    17    19    2
    13    14    15   ar
    14    15    10    1
    15     1    10    1
    16     1     2    1
    17     2     3    1
    18     3     4    1
    19     4     5   am
    20     5     6    2
    21     5    29    1
    22    29    30    1
    23    30    31   ar
    24    31    32   ar
    25    32    33   ar
    26    33    36    1
    27    36    37    1
    28    37    38    1
    29    37    39    1
    30    37    40    1
    31    33    34   ar
    32    34    35   ar
    33     4     7    1
    34     7     8    1
    35     8     9    1
    36    15    16   ar
    37    16    11   ar
    38     8     1    1
    39    35    30   ar
    40    27    28    1
    41    18    20    1
    42    18    21    1
@<TRIPOS>MOLECULE
*****
 40 42 0 0 0
SMALL
GASTEIGER

@<TRIPOS>ATOM
      1 C         142.6350  142.7018  161.3785 C.3     1  UNL1        0.2016
      2 C         141.7130  142.0047  160.4225 C.3     1  UNL1        0.0679
      3 C         142.2277  141.5290  159.0962 C.3     1  UNL1        0.0973
      4 N         143.6643  141.7503  158.7261 N.am    1  UNL1       -0.2762
      5 C         144.1789  141.2746  157.3999 C.2     1  UNL1        0.2301
      6 O         145.6156  141.4959  157.0297 O.2     1  UNL1       -0.2745
      7 C         144.5863  142.4474  159.6821 C.3     1  UNL1        0.1323
      8 C         144.0717  142.9231  161.0083 C.3     1  UNL1        0.2202
      9 F         144.9937  143.6201  161.9643 F       1  UNL1       -0.2316
     10 O         142.1204  143.1775  162.7047 O.3     1  UNL1       -0.4760
     11 C         139.2173  140.8951  164.1582 C.ar    1  UNL1        0.1417
     12 C         138.0680  141.8588  164.1500 C.ar    1  UNL1        0.0373
     13 C         138.2694  143.2622  163.6600 C.ar    1  UNL1        0.0107
     14 C         139.6202  143.7017  163.1783 C.ar    1  UNL1        0.0872
     15 C         140.7695  142.7379  163.1865 C.ar    1  UNL1        0.1458
     16 C         140.5681  141.3346  163.6765 C.ar    1  UNL1        0.0739
     17 C         139.8216  145.1050  162.6883 C.2     1  UNL1        0.2457
     18 N         141.0638  145.8586  163.0611 N.am    1  UNL1       -0.3252
     19 O         138.7809  145.7548  161.8254 O.2     1  UNL1       -0.2703
     20 H         141.7470  145.4321  163.6275 H       1  UNL1        0.1453
     21 H         141.1960  146.7796  162.7395 H       1  UNL1        0.1453
     22 O         139.0159  139.4917  164.6482 O.3     1  UNL1       -0.4728
     23 C         138.8334  138.3732  163.6656 C.3     1  UNL1        0.2318
     24 C         140.5478  137.4111  164.4627 C.3     1  UNL1        0.0332
     25 C         140.0314  137.6853  163.0813 C.3     1  UNL1        0.1286
     26 C         139.5151  137.9595  161.6999 C.3     1  UNL1        0.0332
     27 O         141.2295  136.9974  162.4970 O.3     1  UNL1       -0.3831
     28 H         142.0300  137.4986  162.7181 H       1  UNL1        0.2104
     29 C         143.2569  140.5776  156.4438 C.3     1  UNL1        0.1116
     30 C         143.1590  139.0808  156.4528 C.ar    1  UNL1       -0.0129
     31 C         144.1464  138.2599  155.6774 C.ar    1  UNL1       -0.0007
     32 C         144.0485  136.7632  155.6864 C.ar    1  UNL1        0.0369
     33 C         142.9633  136.0873  156.4708 C.ar    1  UNL1        0.1468
     34 C         141.9759  136.9081  157.2462 C.ar    1  UNL1        0.0369
     35 C         142.0737  138.4049  157.2372 C.ar    1  UNL1       -0.0007
     36 O         142.8654  134.5904  156.4798 O.3     1  UNL1       -0.4045
     37 C         143.9377  133.7727  157.1366 C.3     1  UNL1        0.5753
     38 F         145.0101  132.9549  157.7933 F       1  UNL1       -0.1328
     39 F         143.5087  134.2877  158.4785 F       1  UNL1       -0.1328
     40 F         144.3667  133.2576  155.7947 F       1  UNL1       -0.1328
@<TRIPOS>BOND
     1    24    25    1
     2    25    26    1
     3    25    27    1
     4    25    23    1
     5    23    22    1
     6    22    11    1
     7    11    12   ar
     8    12    13   ar
     9    13    14   ar
    10    14    17    1
    11    17    18   am
    12    17    19    2
    13    14    15   ar
    14    15    10    1
    15     1    10    1
    16     1     2    1
    17     2     3    1
    18     3     4    1
    19     4     5   am
    20     5     6    2
    21     5    29    1
    22    29    30    1
    23    30    31   ar
    24    31    32   ar
    25    32    33   ar
    26    33    36    1
    27    36    37    1
    28    37    38    1
    29    37    39    1
    30    37    40    1
    31    33    34   ar
    32    34    35   ar
    33     4     7    1
    34     7     8    1
    35     8     9    1
    36    15    16   ar
    37    16    11   ar
    38     8     1    1
    39    35    30   ar
    40    27    28    1
    41    18    20    1
    42    18    21    1
@<TRIPOS>MOLECULE
*****
 40 42 0 0 0
SMALL
GASTEIGER

@<TRIPOS>ATOM
      1 C         143.9224  140.0560  159.7156 C.3     1  UNL1        0.2016
      2 C         144.1511  139.6607  161.1444 C.3     1  UNL1        0.0679
      3 C         144.3154  140.7163  162.1974 C.3     1  UNL1        0.0973
      4 N         144.2509  142.1670  161.8217 N.am    1  UNL1       -0.2762
      5 C         144.4152  143.2224  162.8748 C.2     1  UNL1        0.2301
      6 O         144.3507  144.6733  162.4990 O.2     1  UNL1       -0.2745
      7 C         144.0222  142.5622  160.3929 C.3     1  UNL1        0.1323
      8 C         143.8580  141.5068  159.3398 C.3     1  UNL1        0.2202
      9 F         143.6293  141.9020  157.9110 F       1  UNL1       -0.2316
     10 O         143.7582  139.0005  158.6625 O.3     1  UNL1       -0.4760
     11 C         139.8035  138.8301  158.3771 C.ar    1  UNL1        0.1417
     12 C         139.6423  137.8471  157.2557 C.ar    1  UNL1        0.0373
     13 C         140.8531  137.2486  156.6032 C.ar    1  UNL1        0.0107
     14 C         142.2250  137.6330  157.0721 C.ar    1  UNL1        0.0872
     15 C         142.3862  138.6160  158.1935 C.ar    1  UNL1        0.1458
     16 C         141.1754  139.2146  158.8461 C.ar    1  UNL1        0.0739
     17 C         143.4358  137.0345  156.4196 C.2     1  UNL1        0.2457
     18 N         144.4521  137.9232  155.7659 N.am    1  UNL1       -0.3252
     19 O         143.6303  135.5472  156.4206 O.2     1  UNL1       -0.2703
     20 H         144.3244  138.8994  155.7652 H       1  UNL1        0.1453
     21 H         145.2467  137.5304  155.3377 H       1  UNL1        0.1453
     22 O         138.5927  139.4287  159.0297 O.3     1  UNL1       -0.4728
     23 C         138.7403  140.6050  159.9485 C.3     1  UNL1        0.2318
     24 C         137.5405  139.2744  161.0842 C.3     1  UNL1        0.0332
     25 C         137.8405  140.7430  161.1407 C.3     1  UNL1        0.1286
     26 C         138.1406  142.2116  161.1972 C.3     1  UNL1        0.0332
     27 O         136.9407  140.8810  162.3329 O.3     1  UNL1       -0.3831
     28 H         136.0275  140.6817  162.0736 H       1  UNL1        0.2104
     29 C         144.6439  142.8272  164.3036 C.3     1  UNL1        0.1116
     30 C         143.4819  142.7132  165.2454 C.ar    1  UNL1       -0.0129
     31 C         143.7207  142.4482  166.7023 C.ar    1  UNL1       -0.0007
     32 C         142.5588  142.3342  167.6441 C.ar    1  UNL1        0.0369
     33 C         141.1582  142.4852  167.1290 C.ar    1  UNL1        0.1468
     34 C         140.9195  142.7502  165.6720 C.ar    1  UNL1        0.0369
     35 C         142.0813  142.8642  164.7302 C.ar    1  UNL1       -0.0007
     36 O         139.9962  142.3712  168.0708 O.3     1  UNL1       -0.4045
     37 C         140.2127  142.5074  169.5488 C.3     1  UNL1        0.5753
     38 F         140.4292  142.6435  171.0269 F       1  UNL1       -0.1328
     39 F         140.1952  141.0140  169.6889 F       1  UNL1       -0.1328
     40 F         140.2302  144.0007  169.4087 F       1  UNL1       -0.1328
@<TRIPOS>BOND
     1    24    25    1
     2    25    26    1
     3    25    27    1
     4    25    23    1
     5    23    22    1
     6    22    11    1
     7    11    12   ar
     8    12    13   ar
     9    13    14   ar
    10    14    17    1
    11    17    18   am
    12    17    19    2
    13    14    15   ar
    14    15    10    1
    15     1    10    1
    16     1     2    1
    17     2     3    1
    18     3     4    1
    19     4     5   am
    20     5     6    2
    21     5    29    1
    22    29    30    1
    23    30    31   ar
    24    31    32   ar
    25    32    33   ar
    26    33    36    1
    27    36    37    1
    28    37    38    1
    29    37    39    1
    30    37    40    1
    31    33    34   ar
    32    34    35   ar
    33     4     7    1
    34     7     8    1
    35     8     9    1
    36    15    16   ar
    37    16    11   ar
    38     8     1    1
    39    35    30   ar
    40    27    28    1
    41    18    20    1
    42    18    21    1
@<TRIPOS>MOLECULE
*****
 40 42 0 0 0
SMALL
GASTEIGER

@<TRIPOS>ATOM
      1 C         142.2751  138.9427  159.7325 C.3     1  UNL1        0.2016
      2 C         141.3179  138.3608  160.7301 C.3     1  UNL1        0.0679
      3 C         141.6741  138.3397  162.1872 C.3     1  UNL1        0.0973
      4 N         142.9873  138.9005  162.6464 N.am    1  UNL1       -0.2762
      5 C         143.3433  138.8793  164.1034 C.2     1  UNL1        0.2301
      6 O         144.6566  139.4401  164.5628 O.2     1  UNL1       -0.2745
      7 C         143.9444  139.4824  161.6488 C.3     1  UNL1        0.1323
      8 C         143.5883  139.5035  160.1919 C.3     1  UNL1        0.2202
      9 F         144.5454  140.0854  159.1942 F       1  UNL1       -0.2316
     10 O         141.9190  138.9639  158.2756 O.3     1  UNL1       -0.4760
     11 C         143.2336  135.6830  156.4705 C.ar    1  UNL1        0.1417
     12 C         144.0879  136.2769  155.3901 C.ar    1  UNL1        0.0373
     13 C         144.2193  137.7664  155.2714 C.ar    1  UNL1        0.0107
     14 C         143.4963  138.6621  156.2332 C.ar    1  UNL1        0.0872
     15 C         142.6420  138.0682  157.3137 C.ar    1  UNL1        0.1458
     16 C         142.5106  136.5787  157.4323 C.ar    1  UNL1        0.0739
     17 C         143.6277  140.1516  156.1146 C.2     1  UNL1        0.2457
     18 N         142.4150  141.0244  156.2470 N.am    1  UNL1       -0.3252
     19 O         144.9717  140.7684  155.8636 O.2     1  UNL1       -0.2703
     20 H         141.5328  140.6196  156.4117 H       1  UNL1        0.1453
     21 H         142.5012  142.0020  156.1691 H       1  UNL1        0.1453
     22 O         143.1022  134.1935  156.5891 O.3     1  UNL1       -0.4728
     23 C         144.3169  133.3515  156.8449 C.3     1  UNL1        0.2318
     24 C         142.8230  131.8455  156.8358 C.3     1  UNL1        0.0332
     25 C         144.1720  131.9974  157.4739 C.3     1  UNL1        0.1286
     26 C         145.5210  132.1494  158.1119 C.3     1  UNL1        0.0332
     27 O         144.0271  130.6434  158.1028 O.3     1  UNL1       -0.3831
     28 H         143.2940  130.6586  158.7379 H       1  UNL1        0.2104
     29 C         142.3862  138.2974  165.1010 C.3     1  UNL1        0.1116
     30 C         141.9940  139.0884  166.3138 C.ar    1  UNL1       -0.0129
     31 C         140.6981  139.8435  166.3298 C.ar    1  UNL1       -0.0007
     32 C         140.3059  140.6345  167.5425 C.ar    1  UNL1        0.0369
     33 C         141.2096  140.6702  168.7391 C.ar    1  UNL1        0.1468
     34 C         142.5055  139.9150  168.7230 C.ar    1  UNL1        0.0369
     35 C         142.8978  139.1241  167.5104 C.ar    1  UNL1       -0.0007
     36 O         140.8174  141.4612  169.9518 O.3     1  UNL1       -0.4045
     37 C         140.5489  142.9322  169.8332 C.3     1  UNL1        0.5753
     38 F         140.2804  144.4032  169.7147 F       1  UNL1       -0.1328
     39 F         139.2335  142.7482  170.5304 F       1  UNL1       -0.1328
     40 F         141.8643  143.1161  169.1361 F       1  UNL1       -0.1328
@<TRIPOS>BOND
     1    24    25    1
     2    25    26    1
     3    25    27    1
     4    25    23    1
     5    23    22    1
     6    22    11    1
     7    11    12   ar
     8    12    13   ar
     9    13    14   ar
    10    14    17    1
    11    17    18   am
    12    17    19    2
    13    14    15   ar
    14    15    10    1
    15     1    10    1
    16     1     2    1
    17     2     3    1
    18     3     4    1
    19     4     5   am
    20     5     6    2
    21     5    29    1
    22    29    30    1
    23    30    31   ar
    24    31    32   ar
    25    32    33   ar
    26    33    36    1
    27    36    37    1
    28    37    38    1
    29    37    39    1
    30    37    40    1
    31    33    34   ar
    32    34    35   ar
    33     4     7    1
    34     7     8    1
    35     8     9    1
    36    15    16   ar
    37    16    11   ar
    38     8     1    1
    39    35    30   ar
    40    27    28    1
    41    18    20    1
    42    18    21    1
