@<TRIPOS>MOLECULE
*****
 40 44 0 0 0
SMALL
GASTEIGER

@<TRIPOS>ATOM
      1 C         141.1280  141.3997  163.9109 C.3     1  UNL1        0.0568
      2 C         141.4036  141.8894  165.3017 C.3     1  UNL1        0.1001
      3 N         142.0740  140.9876  166.2953 N.am    1  UNL1       -0.2459
      4 C         142.4687  139.5960  165.8981 C.2     1  UNL1        0.4046
      5 O         143.1391  138.6941  166.8918 O.2     1  UNL1       -0.2262
      6 O         142.1930  139.1063  164.5074 O.3     1  UNL1       -0.4416
      7 C         141.5227  140.0081  163.5138 C.3     1  UNL1        0.1417
      8 C         140.8523  140.9100  162.5202 C.3     1  UNL1        0.0576
      9 C         140.5767  140.4203  161.1295 C.3     1  UNL1        0.0756
     10 N         140.9714  139.0287  160.7323 N.3     1  UNL1       -0.2749
     11 C         141.6417  138.1268  161.7259 C.3     1  UNL1        0.0756
     12 C         141.9174  138.6166  163.1166 C.3     1  UNL1        0.0576
     13 C         140.6957  138.5390  159.3415 C.3     1  UNL1        0.0487
     14 C         139.3011  138.8733  159.7811 C.3     1  UNL1        0.0161
     15 C         142.1861  138.3747  159.3849 C.3     1  UNL1        0.0362
     16 C         142.9164  137.8368  158.1903 C.3     1  UNL1        0.0951
     17 N         142.1565  137.4632  156.9522 N.am    1  UNL1       -0.2759
     18 C         142.8868  136.9253  155.7575 C.2     1  UNL1        0.2513
     19 O         144.3772  136.7610  155.8009 O.2     1  UNL1       -0.2698
     20 C         140.6661  137.6275  156.9088 C.3     1  UNL1        0.0951
     21 C         139.9358  138.1654  158.1034 C.3     1  UNL1        0.0362
     22 C         142.1268  136.5518  154.5194 C.ar    1  UNL1        0.0807
     23 C         141.5634  135.1692  154.3737 C.ar    1  UNL1        0.0666
     24 C         141.7600  134.1603  155.4662 C.3     1  UNL1        0.0523
     25 N         140.8035  134.7956  153.1356 N.ar    1  UNL1       -0.2282
     26 C         140.6069  135.8045  152.0432 C.ar    1  UNL1        0.1982
     27 N         141.1703  137.1871  152.1889 N.ar    1  UNL1       -0.2282
     28 C         141.9303  137.5607  153.4270 C.ar    1  UNL1        0.0666
     29 C         142.4937  138.9432  153.5726 C.3     1  UNL1        0.0523
     30 C         140.4576  142.3016  162.9173 C.3     1  UNL1        0.0052
     31 C         140.3703  143.7755  163.1818 C.3     1  UNL1        0.0002
     32 C         138.9030  144.7721  165.0801 C.3     1  UNL1        0.0000
     33 C         139.0771  144.3794  163.6429 C.3     1  UNL1        0.0000
     34 C         142.3497  141.4773  167.6861 C.3     1  UNL1        0.0968
     35 C         141.2279  141.5990  168.6745 C.3     1  UNL1        0.0250
     36 C         140.2821  140.4531  168.8803 C.3     1  UNL1        0.0339
     37 C         139.1603  140.5748  169.8687 C.3     1  UNL1        0.1422
     38 O         138.9844  141.8423  170.6512 O.3     1  UNL1       -0.3538
     39 C         139.9303  142.9882  170.4454 C.3     1  UNL1        0.1422
     40 C         141.0520  142.8666  169.4570 C.3     1  UNL1        0.0339
@<TRIPOS>BOND
     1    32    33    1
     2    33    31    1
     3    31    30    1
     4     1    30    1
     5     1     2    1
     6     2     3    1
     7     3    34    1
     8    34    35    1
     9    35    36    1
    10    36    37    1
    11    37    38    1
    12    38    39    1
    13    39    40    1
    14     3     4   am
    15     4     5    2
    16     4     6    1
    17     6     7    1
    18     7     8    1
    19     8     9    1
    20     9    10    1
    21    10    13    1
    22    13    14    1
    23    13    15    1
    24    15    16    1
    25    16    17    1
    26    17    18   am
    27    18    19    2
    28    18    22    1
    29    22    23   ar
    30    23    24    1
    31    23    25   ar
    32    25    26   ar
    33    26    27   ar
    34    27    28   ar
    35    28    29    1
    36    17    20    1
    37    20    21    1
    38    10    11    1
    39    11    12    1
    40     7     1    1
    41    21    13    1
    42    40    35    1
    43    12     7    1
    44    28    22   ar
@<TRIPOS>MOLECULE
*****
 40 44 0 0 0
SMALL
GASTEIGER

@<TRIPOS>ATOM
      1 C         139.5628  143.5108  159.0394 C.3     1  UNL1        0.0568
      2 C         139.6560  143.7318  157.5586 C.3     1  UNL1        0.1001
      3 N         140.6663  144.6928  157.0059 N.am    1  UNL1       -0.2459
      4 C         141.5835  145.4329  157.9338 C.2     1  UNL1        0.4046
      5 O         142.5938  146.3940  157.3810 O.2     1  UNL1       -0.2262
      6 O         141.4903  145.2120  159.4145 O.3     1  UNL1       -0.4416
      7 C         140.4799  144.2509  159.9673 C.3     1  UNL1        0.1417
      8 C         139.4696  143.2898  160.5201 C.3     1  UNL1        0.0576
      9 C         139.3765  143.0689  162.0007 C.3     1  UNL1        0.0756
     10 N         140.2936  143.8089  162.9287 N.3     1  UNL1       -0.2749
     11 C         141.3040  144.7700  162.3759 C.3     1  UNL1        0.0756
     12 C         141.3971  144.9910  160.8952 C.3     1  UNL1        0.0576
     13 C         140.2004  143.5879  164.4094 C.3     1  UNL1        0.0487
     14 C         139.2500  144.7383  164.2574 C.3     1  UNL1        0.0161
     15 C         141.1833  142.5142  164.0471 C.3     1  UNL1        0.0362
     16 C         141.7429  141.6191  165.1127 C.3     1  UNL1        0.0951
     17 N         141.3196  141.7976  166.5407 N.am    1  UNL1       -0.2759
     18 C         141.8792  140.9025  167.6063 C.2     1  UNL1        0.2513
     19 O         142.8620  139.8288  167.2441 O.2     1  UNL1       -0.2698
     20 C         140.3367  142.8713  166.9029 C.3     1  UNL1        0.0951
     21 C         139.7772  143.7664  165.8373 C.3     1  UNL1        0.0362
     22 C         141.4559  141.0810  169.0343 C.ar    1  UNL1        0.0807
     23 C         140.1471  140.5187  169.5045 C.ar    1  UNL1        0.0666
     24 C         139.2618  139.7780  168.5467 C.3     1  UNL1        0.0523
     25 N         139.7239  140.6972  170.9324 N.ar    1  UNL1       -0.2282
     26 C         140.6093  141.4379  171.8901 C.ar    1  UNL1        0.1982
     27 N         141.9180  142.0002  171.4199 N.ar    1  UNL1       -0.2282
     28 C         142.3413  141.8217  169.9920 C.ar    1  UNL1        0.0666
     29 C         143.6501  142.3840  169.5218 C.3     1  UNL1        0.0523
     30 C         138.5524  142.5497  159.5921 C.3     1  UNL1        0.0052
     31 C         138.2657  141.2659  158.8712 C.3     1  UNL1        0.0002
     32 C         137.5915  139.6844  160.8191 C.3     1  UNL1        0.0000
     33 C         138.4049  139.9559  159.5884 C.3     1  UNL1        0.0000
     34 C         140.7595  144.9138  155.5251 C.3     1  UNL1        0.0968
     35 C         140.3937  146.2462  154.9412 C.3     1  UNL1        0.0250
     36 C         141.0283  146.7039  153.6615 C.3     1  UNL1        0.0339
     37 C         140.6625  148.0363  153.0776 C.3     1  UNL1        0.1422
     38 O         139.6622  148.9110  153.7734 O.3     1  UNL1       -0.3538
     39 C         139.0276  148.4533  155.0532 C.3     1  UNL1        0.1422
     40 C         139.3933  147.1209  155.6371 C.3     1  UNL1        0.0339
@<TRIPOS>BOND
     1    32    33    1
     2    33    31    1
     3    31    30    1
     4     1    30    1
     5     1     2    1
     6     2     3    1
     7     3    34    1
     8    34    35    1
     9    35    36    1
    10    36    37    1
    11    37    38    1
    12    38    39    1
    13    39    40    1
    14     3     4   am
    15     4     5    2
    16     4     6    1
    17     6     7    1
    18     7     8    1
    19     8     9    1
    20     9    10    1
    21    10    13    1
    22    13    14    1
    23    13    15    1
    24    15    16    1
    25    16    17    1
    26    17    18   am
    27    18    19    2
    28    18    22    1
    29    22    23   ar
    30    23    24    1
    31    23    25   ar
    32    25    26   ar
    33    26    27   ar
    34    27    28   ar
    35    28    29    1
    36    17    20    1
    37    20    21    1
    38    10    11    1
    39    11    12    1
    40     7     1    1
    41    21    13    1
    42    40    35    1
    43    12     7    1
    44    28    22   ar
@<TRIPOS>MOLECULE
*****
 40 44 0 0 0
SMALL
GASTEIGER

@<TRIPOS>ATOM
      1 C         141.1483  141.2198  163.9776 C.3     1  UNL1        0.0568
      2 C         141.4297  141.6736  165.3793 C.3     1  UNL1        0.1001
      3 N         142.1323  140.7579  166.3373 N.am    1  UNL1       -0.2459
      4 C         142.5535  139.3884  165.8936 C.2     1  UNL1        0.4046
      5 O         143.2562  138.4726  166.8516 O.2     1  UNL1       -0.2262
      6 O         142.2721  138.9345  164.4919 O.3     1  UNL1       -0.4416
      7 C         141.5694  139.8502  163.5338 C.3     1  UNL1        0.1417
      8 C         140.8668  140.7660  162.5759 C.3     1  UNL1        0.0576
      9 C         140.5854  140.3121  161.1742 C.3     1  UNL1        0.0756
     10 N         141.0066  138.9426  160.7305 N.3     1  UNL1       -0.2749
     11 C         141.7092  138.0268  161.6884 C.3     1  UNL1        0.0756
     12 C         141.9906  138.4807  163.0901 C.3     1  UNL1        0.0576
     13 C         140.7251  138.4887  159.3287 C.3     1  UNL1        0.0487
     14 C         139.3362  138.8413  159.7721 C.3     1  UNL1        0.0161
     15 C         142.2118  138.2937  159.3721 C.3     1  UNL1        0.0362
     16 C         142.9346  137.7674  158.1678 C.3     1  UNL1        0.0951
     17 N         142.1708  137.4361  156.9200 N.am    1  UNL1       -0.2759
     18 C         142.8936  136.9097  155.7156 C.2     1  UNL1        0.2513
     19 O         144.3803  136.7147  155.7590 O.2     1  UNL1       -0.2698
     20 C         140.6841  137.6310  156.8767 C.3     1  UNL1        0.0951
     21 C         139.9613  138.1574  158.0810 C.3     1  UNL1        0.0362
     22 C         142.1298  136.5783  154.4679 C.ar    1  UNL1        0.0807
     23 C         141.9632  137.6120  153.3938 C.ar    1  UNL1        0.0666
     24 C         142.5603  138.9770  153.5675 C.3     1  UNL1        0.0523
     25 N         141.1994  137.2807  152.1460 N.ar    1  UNL1       -0.2282
     26 C         140.6023  135.9157  151.9724 C.ar    1  UNL1        0.1982
     27 N         140.7690  134.8820  153.0466 N.ar    1  UNL1       -0.2282
     28 C         141.5327  135.2133  154.2943 C.ar    1  UNL1        0.0666
     29 C         141.6994  134.1796  155.3685 C.3     1  UNL1        0.0523
     30 C         140.4456  142.1355  163.0196 C.3     1  UNL1        0.0052
     31 C         140.3439  143.6014  163.3211 C.3     1  UNL1        0.0002
     32 C         138.8713  144.7964  165.0968 C.3     1  UNL1        0.0000
     33 C         139.0284  144.1930  163.7325 C.3     1  UNL1        0.0000
     34 C         142.4138  141.2117  167.7391 C.3     1  UNL1        0.0968
     35 C         141.2816  141.4290  168.6986 C.3     1  UNL1        0.0250
     36 C         141.1254  142.7525  169.3871 C.3     1  UNL1        0.0339
     37 C         139.9932  142.9698  170.3467 C.3     1  UNL1        0.1422
     38 O         139.0170  141.8636  170.6178 O.3     1  UNL1       -0.3538
     39 C         139.1731  140.5401  169.9292 C.3     1  UNL1        0.1422
     40 C         140.3054  140.3228  168.9697 C.3     1  UNL1        0.0339
@<TRIPOS>BOND
     1    32    33    1
     2    33    31    1
     3    31    30    1
     4     1    30    1
     5     1     2    1
     6     2     3    1
     7     3    34    1
     8    34    35    1
     9    35    36    1
    10    36    37    1
    11    37    38    1
    12    38    39    1
    13    39    40    1
    14     3     4   am
    15     4     5    2
    16     4     6    1
    17     6     7    1
    18     7     8    1
    19     8     9    1
    20     9    10    1
    21    10    13    1
    22    13    14    1
    23    13    15    1
    24    15    16    1
    25    16    17    1
    26    17    18   am
    27    18    19    2
    28    18    22    1
    29    22    23   ar
    30    23    24    1
    31    23    25   ar
    32    25    26   ar
    33    26    27   ar
    34    27    28   ar
    35    28    29    1
    36    17    20    1
    37    20    21    1
    38    10    11    1
    39    11    12    1
    40     7     1    1
    41    21    13    1
    42    40    35    1
    43    12     7    1
    44    28    22   ar
@<TRIPOS>MOLECULE
*****
 40 44 0 0 0
SMALL
GASTEIGER

@<TRIPOS>ATOM
      1 C         139.8886  140.7272  165.0773 C.3     1  UNL1        0.0568
      2 C         139.8010  140.7789  166.5739 C.3     1  UNL1        0.1001
      3 N         138.9818  139.7626  167.3128 N.am    1  UNL1       -0.2459
      4 C         138.2501  138.6946  166.5552 C.2     1  UNL1        0.4046
      5 O         137.4309  137.6783  167.2942 O.2     1  UNL1       -0.2262
      6 O         138.3377  138.6428  165.0587 O.3     1  UNL1       -0.4416
      7 C         139.1569  139.6591  164.3197 C.3     1  UNL1        0.1417
      8 C         139.9761  140.6754  163.5808 C.3     1  UNL1        0.0576
      9 C         140.0637  140.6236  162.0843 C.3     1  UNL1        0.0756
     10 N         139.3320  139.5556  161.3267 N.3     1  UNL1       -0.2749
     11 C         138.5128  138.5393  162.0656 C.3     1  UNL1        0.0756
     12 C         138.4252  138.5911  163.5621 C.3     1  UNL1        0.0576
     13 C         139.4196  139.5038  159.8301 C.3     1  UNL1        0.0487
     14 C         138.0598  140.1164  159.9904 C.3     1  UNL1        0.0161
     15 C         140.7490  138.9092  160.1895 C.3     1  UNL1        0.0362
     16 C         141.6937  138.4756  159.1082 C.3     1  UNL1        0.0951
     17 N         141.3091  138.6366  157.6673 N.am    1  UNL1       -0.2759
     18 C         142.2537  138.2030  156.5858 C.2     1  UNL1        0.2513
     19 O         143.5832  137.6084  156.9453 O.2     1  UNL1       -0.2698
     20 C         139.9797  139.2312  157.3078 C.3     1  UNL1        0.0951
     21 C         139.0349  139.6648  158.3892 C.3     1  UNL1        0.0362
     22 C         141.8691  138.3640  155.1449 C.ar    1  UNL1        0.0807
     23 C         142.2079  139.6300  154.4152 C.ar    1  UNL1        0.0666
     24 C         142.9312  140.7350  155.1264 C.3     1  UNL1        0.0523
     25 N         141.8232  139.7910  152.9743 N.ar    1  UNL1       -0.2282
     26 C         141.0999  138.6860  152.2632 C.ar    1  UNL1        0.1982
     27 N         140.7612  137.4200  152.9929 N.ar    1  UNL1       -0.2282
     28 C         141.1458  137.2590  154.4338 C.ar    1  UNL1        0.0666
     29 C         140.8071  135.9930  155.1635 C.3     1  UNL1        0.0523
     30 C         140.7078  141.7434  164.3384 C.3     1  UNL1        0.0052
     31 C         140.8840  143.1208  164.9056 C.3     1  UNL1        0.0002
     32 C         138.8527  144.7068  165.2353 C.3     1  UNL1        0.0000
     33 C         140.0238  144.2486  164.4177 C.3     1  UNL1        0.0000
     34 C         138.8942  139.8144  168.8094 C.3     1  UNL1        0.0968
     35 C         139.9939  140.4549  169.6033 C.3     1  UNL1        0.0250
     36 C         141.2805  139.7186  169.8324 C.3     1  UNL1        0.0339
     37 C         142.3802  140.3591  170.6263 C.3     1  UNL1        0.1422
     38 O         142.1934  141.7360  171.1912 O.3     1  UNL1       -0.3538
     39 C         140.9068  142.4725  170.9622 C.3     1  UNL1        0.1422
     40 C         139.8070  141.8319  170.1683 C.3     1  UNL1        0.0339
@<TRIPOS>BOND
     1    32    33    1
     2    33    31    1
     3    31    30    1
     4     1    30    1
     5     1     2    1
     6     2     3    1
     7     3    34    1
     8    34    35    1
     9    35    36    1
    10    36    37    1
    11    37    38    1
    12    38    39    1
    13    39    40    1
    14     3     4   am
    15     4     5    2
    16     4     6    1
    17     6     7    1
    18     7     8    1
    19     8     9    1
    20     9    10    1
    21    10    13    1
    22    13    14    1
    23    13    15    1
    24    15    16    1
    25    16    17    1
    26    17    18   am
    27    18    19    2
    28    18    22    1
    29    22    23   ar
    30    23    24    1
    31    23    25   ar
    32    25    26   ar
    33    26    27   ar
    34    27    28   ar
    35    28    29    1
    36    17    20    1
    37    20    21    1
    38    10    11    1
    39    11    12    1
    40     7     1    1
    41    21    13    1
    42    40    35    1
    43    12     7    1
    44    28    22   ar
@<TRIPOS>MOLECULE
*****
 40 44 0 0 0
SMALL
GASTEIGER

@<TRIPOS>ATOM
      1 C         142.1193  140.5306  163.8428 C.3     1  UNL1        0.0568
      2 C         142.2084  141.2249  165.1695 C.3     1  UNL1        0.1001
      3 N         141.1325  142.1824  165.5887 N.am    1  UNL1       -0.2459
      4 C         139.9675  142.4456  164.6812 C.2     1  UNL1        0.4046
      5 O         138.8916  143.4031  165.1004 O.2     1  UNL1       -0.2262
      6 O         139.8784  141.7513  163.3546 O.3     1  UNL1       -0.4416
      7 C         140.9543  140.7938  162.9354 C.3     1  UNL1        0.1417
      8 C         142.0302  139.8363  162.5162 C.3     1  UNL1        0.0576
      9 C         141.9411  139.1421  161.1896 C.3     1  UNL1        0.0756
     10 N         140.7761  139.4053  160.2821 N.3     1  UNL1       -0.2749
     11 C         139.7002  140.3627  160.7012 C.3     1  UNL1        0.0756
     12 C         139.7893  141.0570  162.0279 C.3     1  UNL1        0.0576
     13 C         140.6870  138.7109  158.9554 C.3     1  UNL1        0.0487
     14 C         139.2365  138.7306  159.3369 C.3     1  UNL1        0.0161
     15 C         142.1685  138.9323  159.0346 C.3     1  UNL1        0.0362
     16 C         143.0572  138.4663  157.9197 C.3     1  UNL1        0.0951
     17 N         142.4644  137.7789  156.7255 N.am    1  UNL1       -0.2759
     18 C         143.3530  137.3128  155.6105 C.2     1  UNL1        0.2513
     19 O         144.8344  137.5342  155.6897 O.2     1  UNL1       -0.2698
     20 C         140.9829  137.5574  156.6463 C.3     1  UNL1        0.0951
     21 C         140.0943  138.0235  157.7612 C.3     1  UNL1        0.0362
     22 C         142.7602  136.6253  154.4164 C.ar    1  UNL1        0.0807
     23 C         142.2843  137.4332  153.2455 C.ar    1  UNL1        0.0666
     24 C         142.4013  138.9284  153.2688 C.3     1  UNL1        0.0523
     25 N         141.6915  136.7457  152.0513 N.ar    1  UNL1       -0.2282
     26 C         141.5746  135.2505  152.0281 C.ar    1  UNL1        0.1982
     27 N         142.0505  134.4427  153.1990 N.ar    1  UNL1       -0.2282
     28 C         142.6432  135.1301  154.3931 C.ar    1  UNL1        0.0666
     29 C         143.1191  134.3223  155.5641 C.3     1  UNL1        0.0523
     30 C         143.1952  139.5732  163.4237 C.3     1  UNL1        0.0052
     31 C         144.5076  139.5550  164.1498 C.3     1  UNL1        0.0002
     32 C         145.3121  141.6521  162.8440 C.3     1  UNL1        0.0000
     33 C         145.4710  140.6931  163.9864 C.3     1  UNL1        0.0000
     34 C         141.2216  142.8767  166.9154 C.3     1  UNL1        0.0968
     35 C         140.5379  142.2916  168.1155 C.3     1  UNL1        0.0250
     36 C         140.3917  143.1059  169.3666 C.3     1  UNL1        0.0339
     37 C         139.7080  142.5208  170.5667 C.3     1  UNL1        0.1422
     38 O         139.1705  141.1214  170.5157 O.3     1  UNL1       -0.3538
     39 C         139.3167  140.3070  169.2644 C.3     1  UNL1        0.1422
     40 C         140.0004  140.8921  168.0644 C.3     1  UNL1        0.0339
@<TRIPOS>BOND
     1    32    33    1
     2    33    31    1
     3    31    30    1
     4     1    30    1
     5     1     2    1
     6     2     3    1
     7     3    34    1
     8    34    35    1
     9    35    36    1
    10    36    37    1
    11    37    38    1
    12    38    39    1
    13    39    40    1
    14     3     4   am
    15     4     5    2
    16     4     6    1
    17     6     7    1
    18     7     8    1
    19     8     9    1
    20     9    10    1
    21    10    13    1
    22    13    14    1
    23    13    15    1
    24    15    16    1
    25    16    17    1
    26    17    18   am
    27    18    19    2
    28    18    22    1
    29    22    23   ar
    30    23    24    1
    31    23    25   ar
    32    25    26   ar
    33    26    27   ar
    34    27    28   ar
    35    28    29    1
    36    17    20    1
    37    20    21    1
    38    10    11    1
    39    11    12    1
    40     7     1    1
    41    21    13    1
    42    40    35    1
    43    12     7    1
    44    28    22   ar
@<TRIPOS>MOLECULE
*****
 40 44 0 0 0
SMALL
GASTEIGER

@<TRIPOS>ATOM
      1 C         140.8269  139.7337  165.3977 C.3     1  UNL1        0.0568
      2 C         141.1975  139.8550  166.8462 C.3     1  UNL1        0.1001
      3 N         142.4313  139.1770  167.3639 N.am    1  UNL1       -0.2459
      4 C         143.2945  138.3777  166.4333 C.2     1  UNL1        0.4046
      5 O         144.5283  137.6997  166.9512 O.2     1  UNL1       -0.2262
      6 O         142.9238  138.2564  164.9849 O.3     1  UNL1       -0.4416
      7 C         141.6900  138.9344  164.4671 C.3     1  UNL1        0.1417
      8 C         140.4562  139.6123  163.9493 C.3     1  UNL1        0.0576
      9 C         140.0856  139.4910  162.5010 C.3     1  UNL1        0.0756
     10 N         140.9488  138.6917  161.5703 N.3     1  UNL1       -0.2749
     11 C         142.1825  138.0137  162.0881 C.3     1  UNL1        0.0756
     12 C         142.5532  138.1351  163.5365 C.3     1  UNL1        0.0576
     13 C         140.5781  138.5704  160.1219 C.3     1  UNL1        0.0487
     14 C         139.2266  138.8376  160.7151 C.3     1  UNL1        0.0161
     15 C         142.0584  138.3453  160.0317 C.3     1  UNL1        0.0362
     16 C         142.6986  138.0917  158.6991 C.3     1  UNL1        0.0951
     17 N         141.8586  138.0631  157.4567 N.am    1  UNL1       -0.2759
     18 C         142.4988  137.8095  156.1241 C.2     1  UNL1        0.2513
     19 O         143.9791  137.5844  156.0339 O.2     1  UNL1       -0.2698
     20 C         140.3783  138.2882  157.5469 C.3     1  UNL1        0.0951
     21 C         139.7381  138.5418  158.8795 C.3     1  UNL1        0.0362
     22 C         141.6588  137.7810  154.8817 C.ar    1  UNL1        0.0807
     23 C         141.4327  139.0412  154.1001 C.ar    1  UNL1        0.0666
     24 C         142.0467  140.3298  154.5610 C.3     1  UNL1        0.0523
     25 N         140.5927  139.0127  152.8577 N.ar    1  UNL1       -0.2282
     26 C         139.9788  137.7240  152.3969 C.ar    1  UNL1        0.1982
     27 N         140.2048  136.4638  153.1785 N.ar    1  UNL1       -0.2282
     28 C         141.0449  136.4924  154.4209 C.ar    1  UNL1        0.0666
     29 C         141.2709  135.2321  155.2025 C.3     1  UNL1        0.0523
     30 C         139.5931  140.4117  164.8800 C.3     1  UNL1        0.0052
     31 C         138.2374  139.8973  165.2640 C.3     1  UNL1        0.0002
     32 C         137.7089  137.8010  166.7050 C.3     1  UNL1        0.0000
     33 C         138.0287  139.2633  166.6073 C.3     1  UNL1        0.0000
     34 C         142.8020  139.2984  168.8124 C.3     1  UNL1        0.0968
     35 C         142.4352  140.5341  169.5794 C.3     1  UNL1        0.0250
     36 C         141.1835  140.5603  170.4055 C.3     1  UNL1        0.0339
     37 C         140.8167  141.7961  171.1725 C.3     1  UNL1        0.1422
     38 O         141.7017  143.0057  171.1135 O.3     1  UNL1       -0.3538
     39 C         142.9536  142.9796  170.2874 C.3     1  UNL1        0.1422
     40 C         143.3203  141.7438  169.5204 C.3     1  UNL1        0.0339
@<TRIPOS>BOND
     1    32    33    1
     2    33    31    1
     3    31    30    1
     4     1    30    1
     5     1     2    1
     6     2     3    1
     7     3    34    1
     8    34    35    1
     9    35    36    1
    10    36    37    1
    11    37    38    1
    12    38    39    1
    13    39    40    1
    14     3     4   am
    15     4     5    2
    16     4     6    1
    17     6     7    1
    18     7     8    1
    19     8     9    1
    20     9    10    1
    21    10    13    1
    22    13    14    1
    23    13    15    1
    24    15    16    1
    25    16    17    1
    26    17    18   am
    27    18    19    2
    28    18    22    1
    29    22    23   ar
    30    23    24    1
    31    23    25   ar
    32    25    26   ar
    33    26    27   ar
    34    27    28   ar
    35    28    29    1
    36    17    20    1
    37    20    21    1
    38    10    11    1
    39    11    12    1
    40     7     1    1
    41    21    13    1
    42    40    35    1
    43    12     7    1
    44    28    22   ar
@<TRIPOS>MOLECULE
*****
 40 44 0 0 0
SMALL
GASTEIGER

@<TRIPOS>ATOM
      1 C         140.4401  140.3068  165.2993 C.3     1  UNL1        0.0568
      2 C         140.1606  140.4310  166.7679 C.3     1  UNL1        0.1001
      3 N         139.0299  139.6615  167.3838 N.am    1  UNL1       -0.2459
      4 C         138.1788  138.7677  166.5313 C.2     1  UNL1        0.4046
      5 O         137.0480  137.9982  167.1473 O.2     1  UNL1       -0.2262
      6 O         138.4583  138.6435  165.0628 O.3     1  UNL1       -0.4416
      7 C         139.5890  139.4130  164.4468 C.3     1  UNL1        0.1417
      8 C         140.7197  140.1825  163.8309 C.3     1  UNL1        0.0576
      9 C         140.9992  140.0583  162.3624 C.3     1  UNL1        0.0756
     10 N         140.1480  139.1646  161.5099 N.3     1  UNL1       -0.2749
     11 C         139.0174  138.3951  162.1258 C.3     1  UNL1        0.0756
     12 C         138.7378  138.5193  163.5943 C.3     1  UNL1        0.0576
     13 C         140.4276  139.0404  160.0414 C.3     1  UNL1        0.0487
     14 C         141.6388  138.3513  160.5963 C.3     1  UNL1        0.0161
     15 C         139.1192  139.7727  159.9965 C.3     1  UNL1        0.0362
     16 C         138.5111  140.1414  158.6758 C.3     1  UNL1        0.0951
     17 N         139.2112  139.7779  157.4001 N.am    1  UNL1       -0.2759
     18 C         138.6032  140.1466  156.0794 C.2     1  UNL1        0.2513
     19 O         137.2948  140.8789  156.0344 O.2     1  UNL1       -0.2698
     20 C         140.5196  139.0456  157.4450 C.3     1  UNL1        0.0951
     21 C         141.1278  138.6769  158.7656 C.3     1  UNL1        0.0362
     22 C         139.3033  139.7831  154.8036 C.ar    1  UNL1        0.0807
     23 C         138.9846  138.4888  154.1157 C.ar    1  UNL1        0.0666
     24 C         137.9658  137.5581  154.7036 C.3     1  UNL1        0.0523
     25 N         139.6848  138.1253  152.8399 N.ar    1  UNL1       -0.2282
     26 C         140.7036  139.0560  152.2521 C.ar    1  UNL1        0.1982
     27 N         141.0224  140.3503  152.9400 N.ar    1  UNL1       -0.2282
     28 C         140.3222  140.7138  154.2158 C.ar    1  UNL1        0.0666
     29 C         140.6409  142.0082  154.9037 C.3     1  UNL1        0.0523
     30 C         141.5708  141.0763  164.6834 C.3     1  UNL1        0.0052
     31 C         142.9018  141.1342  165.3726 C.3     1  UNL1        0.0002
     32 C         143.0601  142.2444  167.7162 C.3     1  UNL1        0.0000
     33 C         143.2517  142.3141  166.2301 C.3     1  UNL1        0.0000
     34 C         138.7503  139.7857  168.8523 C.3     1  UNL1        0.0968
     35 C         139.7033  140.5341  169.7365 C.3     1  UNL1        0.0250
     36 C         139.4148  141.9563  170.1160 C.3     1  UNL1        0.0339
     37 C         140.3677  142.7046  171.0002 C.3     1  UNL1        0.1422
     38 O         141.6092  142.0308  171.5049 O.3     1  UNL1       -0.3538
     39 C         141.8977  140.6086  171.1254 C.3     1  UNL1        0.1422
     40 C         140.9448  139.8602  170.2412 C.3     1  UNL1        0.0339
@<TRIPOS>BOND
     1    32    33    1
     2    33    31    1
     3    31    30    1
     4     1    30    1
     5     1     2    1
     6     2     3    1
     7     3    34    1
     8    34    35    1
     9    35    36    1
    10    36    37    1
    11    37    38    1
    12    38    39    1
    13    39    40    1
    14     3     4   am
    15     4     5    2
    16     4     6    1
    17     6     7    1
    18     7     8    1
    19     8     9    1
    20     9    10    1
    21    10    13    1
    22    13    14    1
    23    13    15    1
    24    15    16    1
    25    16    17    1
    26    17    18   am
    27    18    19    2
    28    18    22    1
    29    22    23   ar
    30    23    24    1
    31    23    25   ar
    32    25    26   ar
    33    26    27   ar
    34    27    28   ar
    35    28    29    1
    36    17    20    1
    37    20    21    1
    38    10    11    1
    39    11    12    1
    40     7     1    1
    41    21    13    1
    42    40    35    1
    43    12     7    1
    44    28    22   ar
@<TRIPOS>MOLECULE
*****
 40 44 0 0 0
SMALL
GASTEIGER

@<TRIPOS>ATOM
      1 C         140.5426  140.3844  164.6261 C.3     1  UNL1        0.0568
      2 C         140.4182  140.5303  166.1139 C.3     1  UNL1        0.1001
      3 N         139.3539  139.7767  166.8550 N.am    1  UNL1       -0.2459
      4 C         138.4139  138.8772  166.1084 C.2     1  UNL1        0.4046
      5 O         137.3495  138.1236  166.8496 O.2     1  UNL1       -0.2262
      6 O         138.5383  138.7313  164.6207 O.3     1  UNL1       -0.4416
      7 C         139.6027  139.4848  163.8796 C.3     1  UNL1        0.1417
      8 C         140.6670  140.2384  163.1385 C.3     1  UNL1        0.0576
      9 C         140.7914  140.0925  161.6508 C.3     1  UNL1        0.0756
     10 N         139.8514  139.1929  160.9042 N.3     1  UNL1       -0.2749
     11 C         138.7871  138.4394  161.6453 C.3     1  UNL1        0.0756
     12 C         138.6627  138.5853  163.1330 C.3     1  UNL1        0.0576
     13 C         139.9759  139.0470  159.4165 C.3     1  UNL1        0.0487
     14 C         138.6927  139.8198  159.4960 C.3     1  UNL1        0.0161
     15 C         141.2158  138.3249  159.8537 C.3     1  UNL1        0.0362
     16 C         142.1346  137.7253  158.8308 C.3     1  UNL1        0.0951
     17 N         141.8134  137.8477  157.3707 N.am    1  UNL1       -0.2759
     18 C         142.7321  137.2481  156.3478 C.2     1  UNL1        0.2513
     19 O         143.9721  136.5260  156.7850 O.2     1  UNL1       -0.2698
     20 C         140.5734  138.5698  156.9336 C.3     1  UNL1        0.0951
     21 C         139.6547  139.1694  157.9564 C.3     1  UNL1        0.0362
     22 C         142.4109  137.3705  154.8877 C.ar    1  UNL1        0.0807
     23 C         141.5789  136.3210  154.2122 C.ar    1  UNL1        0.0666
     24 C         141.0681  135.1491  154.9969 C.3     1  UNL1        0.0523
     25 N         141.2577  136.4434  152.7522 N.ar    1  UNL1       -0.2282
     26 C         141.7685  137.6153  151.9676 C.ar    1  UNL1        0.1982
     27 N         142.6006  138.6648  152.6430 N.ar    1  UNL1       -0.2282
     28 C         142.9218  138.5424  154.1031 C.ar    1  UNL1        0.0666
     29 C         143.7538  139.5920  154.7786 C.3     1  UNL1        0.0523
     30 C         141.6070  141.1379  163.8850 C.3     1  UNL1        0.0052
     31 C         142.8616  141.5554  164.5933 C.3     1  UNL1        0.0002
     32 C         144.4237  139.7322  163.6004 C.3     1  UNL1        0.0000
     33 C         143.9893  140.5802  164.7589 C.3     1  UNL1        0.0000
     34 C         139.2295  139.9226  168.3427 C.3     1  UNL1        0.0968
     35 C         140.3250  140.5835  169.1257 C.3     1  UNL1        0.0250
     36 C         141.4874  139.7740  169.6193 C.3     1  UNL1        0.0339
     37 C         142.5829  140.4349  170.4023 C.3     1  UNL1        0.1422
     38 O         142.5161  141.9051  170.6917 O.3     1  UNL1       -0.3538
     39 C         141.3537  142.7147  170.1980 C.3     1  UNL1        0.1422
     40 C         140.2582  142.0538  169.4150 C.3     1  UNL1        0.0339
@<TRIPOS>BOND
     1    32    33    1
     2    33    31    1
     3    31    30    1
     4     1    30    1
     5     1     2    1
     6     2     3    1
     7     3    34    1
     8    34    35    1
     9    35    36    1
    10    36    37    1
    11    37    38    1
    12    38    39    1
    13    39    40    1
    14     3     4   am
    15     4     5    2
    16     4     6    1
    17     6     7    1
    18     7     8    1
    19     8     9    1
    20     9    10    1
    21    10    13    1
    22    13    14    1
    23    13    15    1
    24    15    16    1
    25    16    17    1
    26    17    18   am
    27    18    19    2
    28    18    22    1
    29    22    23   ar
    30    23    24    1
    31    23    25   ar
    32    25    26   ar
    33    26    27   ar
    34    27    28   ar
    35    28    29    1
    36    17    20    1
    37    20    21    1
    38    10    11    1
    39    11    12    1
    40     7     1    1
    41    21    13    1
    42    40    35    1
    43    12     7    1
    44    28    22   ar
@<TRIPOS>MOLECULE
*****
 40 44 0 0 0
SMALL
GASTEIGER

@<TRIPOS>ATOM
      1 C         142.1942  141.3080  164.9985 C.3     1  UNL1        0.0568
      2 C         141.6788  140.8932  166.3448 C.3     1  UNL1        0.1001
      3 N         140.3076  140.2988  166.4724 N.am    1  UNL1       -0.2459
      4 C         139.4516  140.1192  165.2538 C.2     1  UNL1        0.4046
      5 O         138.0803  139.5247  165.3814 O.2     1  UNL1       -0.2262
      6 O         139.9669  140.5340  163.9075 O.3     1  UNL1       -0.4416
      7 C         141.3382  141.1285  163.7799 C.3     1  UNL1        0.1417
      8 C         142.7094  141.7229  163.6523 C.3     1  UNL1        0.0576
      9 C         143.2247  142.1377  162.3061 C.3     1  UNL1        0.0756
     10 N         142.3687  141.9581  161.0874 N.3     1  UNL1       -0.2749
     11 C         140.9975  141.3637  161.2150 C.3     1  UNL1        0.0756
     12 C         140.4822  140.9489  162.5613 C.3     1  UNL1        0.0576
     13 C         142.8840  142.3730  159.7411 C.3     1  UNL1        0.0487
     14 C         142.3723  143.6911  160.2417 C.3     1  UNL1        0.0161
     15 C         143.2168  140.9107  159.7081 C.3     1  UNL1        0.0362
     16 C         143.8871  140.3211  158.5028 C.3     1  UNL1        0.0951
     17 N         144.2247  141.1937  157.3304 N.am    1  UNL1       -0.2759
     18 C         144.8950  140.6041  156.1250 C.2     1  UNL1        0.2513
     19 O         145.2278  139.1418  156.0920 O.2     1  UNL1       -0.2698
     20 C         143.8920  142.6560  157.3634 C.3     1  UNL1        0.0951
     21 C         143.2216  143.2456  158.5687 C.3     1  UNL1        0.0362
     22 C         145.2326  141.4767  154.9525 C.ar    1  UNL1        0.0807
     23 C         146.5234  142.2407  154.9333 C.ar    1  UNL1        0.0666
     24 C         147.4764  142.1321  156.0866 C.3     1  UNL1        0.0523
     25 N         146.8610  143.1133  153.7609 N.ar    1  UNL1       -0.2282
     26 C         145.9080  143.2219  152.6078 C.ar    1  UNL1        0.1982
     27 N         144.6172  142.4579  152.6270 N.ar    1  UNL1       -0.2282
     28 C         144.2796  141.5853  153.7994 C.ar    1  UNL1        0.0666
     29 C         142.9889  140.8213  153.8186 C.3     1  UNL1        0.0523
     30 C         143.5654  141.9025  164.8709 C.3     1  UNL1        0.0052
     31 C         144.0016  142.9899  165.8075 C.3     1  UNL1        0.0002
     32 C         143.6899  145.1135  164.3435 C.3     1  UNL1        0.0000
     33 C         144.5353  144.2809  165.2612 C.3     1  UNL1        0.0000
     34 C         139.7923  139.8839  167.8187 C.3     1  UNL1        0.0968
     35 C         140.2947  140.5656  169.0567 C.3     1  UNL1        0.0250
     36 C         139.6969  141.8717  169.4889 C.3     1  UNL1        0.0339
     37 C         140.1994  142.5534  170.7269 C.3     1  UNL1        0.1422
     38 O         141.2997  141.9291  171.5328 O.3     1  UNL1       -0.3538
     39 C         141.8976  140.6230  171.1007 C.3     1  UNL1        0.1422
     40 C         141.3951  139.9412  169.8626 C.3     1  UNL1        0.0339
@<TRIPOS>BOND
     1    32    33    1
     2    33    31    1
     3    31    30    1
     4     1    30    1
     5     1     2    1
     6     2     3    1
     7     3    34    1
     8    34    35    1
     9    35    36    1
    10    36    37    1
    11    37    38    1
    12    38    39    1
    13    39    40    1
    14     3     4   am
    15     4     5    2
    16     4     6    1
    17     6     7    1
    18     7     8    1
    19     8     9    1
    20     9    10    1
    21    10    13    1
    22    13    14    1
    23    13    15    1
    24    15    16    1
    25    16    17    1
    26    17    18   am
    27    18    19    2
    28    18    22    1
    29    22    23   ar
    30    23    24    1
    31    23    25   ar
    32    25    26   ar
    33    26    27   ar
    34    27    28   ar
    35    28    29    1
    36    17    20    1
    37    20    21    1
    38    10    11    1
    39    11    12    1
    40     7     1    1
    41    21    13    1
    42    40    35    1
    43    12     7    1
    44    28    22   ar
