@<TRIPOS>MOLECULE
*****
 30 32 0 0 0
SMALL
GASTEIGER

@<TRIPOS>ATOM
      1 C         141.9876  139.5574  166.5992 C.3     1  UNL1        0.0750
      2 C         140.5028  139.3640  166.5116 C.3     1  UNL1        0.0412
      3 C         139.8966  138.7589  165.2802 C.3     1  UNL1        0.0984
      4 N         140.7753  138.3472  164.1364 N.am    1  UNL1       -0.2459
      5 C         140.1691  137.7421  162.9049 C.2     1  UNL1        0.4052
      6 O         141.0479  137.3304  161.7611 O.2     1  UNL1       -0.2262
      7 C         142.2602  138.5406  164.2239 C.3     1  UNL1        0.0984
      8 C         142.8663  139.1457  165.4553 C.3     1  UNL1        0.0412
      9 O         142.1034  142.5397  166.9040 O.2     1  UNL1       -0.2751
     10 C         142.6517  141.6536  167.9830 C.2     1  UNL1        0.2228
     11 N         142.5938  140.1625  167.8306 N.am    1  UNL1       -0.3058
     12 H         142.9537  139.5810  168.5388 H       1  UNL1        0.1494
     13 C         143.2579  142.2588  169.2145 C.3     1  UNL1        0.0914
     14 C         142.5142  142.2137  170.5163 C.3     1  UNL1        0.0564
     15 C         141.1925  141.5096  170.6009 C.ar    1  UNL1        0.0745
     16 C         139.8560  142.0990  170.2597 C.ar    1  UNL1        0.1378
     17 N         138.8127  141.0461  170.4895 N.ar    1  UNL1       -0.1277
     18 N         139.5044  139.8059  170.9729 N.ar    1  UNL1       -0.0675
     19 N         140.9752  140.0924  171.0417 N.ar    1  UNL1       -0.2605
     20 H         141.6750  139.4611  171.3263 H       1  UNL1        0.1903
     21 O         138.6843  137.5487  162.8173 O.3     1  UNL1       -0.4295
     22 C         137.8799  138.3508  161.8377 C.3     1  UNL1        0.2368
     23 C         137.9666  139.8483  161.8443 C.ar    1  UNL1        0.0230
     24 C         138.3309  140.5840  160.5890 C.ar    1  UNL1        0.0108
     25 C         138.4176  142.0814  160.5955 C.ar    1  UNL1        0.0583
     26 CL        138.7820  142.8171  159.3402 Cl      1  UNL1       -0.0822
     27 C         138.1399  142.8432  161.8576 C.ar    1  UNL1        0.0228
     28 C         137.7755  142.1075  163.1129 C.ar    1  UNL1        0.0583
     29 CL        137.4978  142.8693  164.3749 Cl      1  UNL1       -0.0822
     30 C         137.6888  140.6100  163.1063 C.ar    1  UNL1        0.0108
@<TRIPOS>BOND
     1     9    10    2
     2    10    13    1
     3    13    14    1
     4    14    15    1
     5    15    16   ar
     6    16    17   ar
     7    17    18   ar
     8    18    19   ar
     9    10    11   am
    10    11     1    1
    11     1     2    1
    12     2     3    1
    13     3     4    1
    14     4     5   am
    15     5     6    2
    16     5    21    1
    17    21    22    1
    18    22    23    1
    19    23    24   ar
    20    24    25   ar
    21    25    26    1
    22    25    27   ar
    23    27    28   ar
    24    28    29    1
    25    28    30   ar
    26     4     7    1
    27     7     8    1
    28    19    15   ar
    29     8     1    1
    30    30    23   ar
    31    19    20    1
    32    11    12    1
@<TRIPOS>MOLECULE
*****
 30 32 0 0 0
SMALL
GASTEIGER

@<TRIPOS>ATOM
      1 C         139.7923  141.3506  166.1174 C.3     1  UNL1        0.0750
      2 C         139.9154  142.8452  166.0875 C.3     1  UNL1        0.0412
      3 C         139.4167  143.6151  164.9006 C.3     1  UNL1        0.0984
      4 N         138.7950  142.8904  163.7438 N.am    1  UNL1       -0.2459
      5 C         138.2963  143.6603  162.5569 C.2     1  UNL1        0.4052
      6 O         137.6746  142.9356  161.4001 O.2     1  UNL1       -0.2262
      7 C         138.6720  141.3957  163.7738 C.3     1  UNL1        0.0984
      8 C         139.1707  140.6259  164.9606 C.3     1  UNL1        0.0412
      9 O         142.7402  140.9850  166.5376 O.2     1  UNL1       -0.2751
     10 C         141.7649  140.3978  167.5143 C.2     1  UNL1        0.2228
     11 N         140.2910  140.5806  167.3043 N.am    1  UNL1       -0.3058
     12 H         139.6509  140.1953  167.9454 H       1  UNL1        0.1494
     13 C         142.2636  139.6279  168.7012 C.3     1  UNL1        0.0914
     14 C         142.4001  140.3064  170.0319 C.3     1  UNL1        0.0564
     15 C         141.5640  141.5107  170.3490 C.ar    1  UNL1        0.0745
     16 C         141.8854  142.9289  169.9807 C.ar    1  UNL1        0.1378
     17 N         140.7797  143.8030  170.4941 N.ar    1  UNL1       -0.1277
     18 N         139.7751  142.9250  171.1796 N.ar    1  UNL1       -0.0675
     19 N         140.2598  141.5083  171.0899 N.ar    1  UNL1       -0.2605
     20 H         139.8023  140.7160  171.4535 H       1  UNL1        0.1903
     21 O         138.4193  145.1549  162.5270 O.3     1  UNL1       -0.4295
     22 C         139.6146  145.7964  161.8866 C.3     1  UNL1        0.2368
     23 C         140.9590  145.1379  161.9794 C.ar    1  UNL1        0.0230
     24 C         141.4509  144.2752  160.8552 C.ar    1  UNL1        0.0108
     25 C         142.7953  143.6166  160.9480 C.ar    1  UNL1        0.0583
     26 CL        143.2871  142.7540  159.8237 Cl      1  UNL1       -0.0822
     27 C         143.6480  143.8207  162.1651 C.ar    1  UNL1        0.0228
     28 C         143.1562  144.6833  163.2894 C.ar    1  UNL1        0.0583
     29 CL        144.0088  144.8874  164.5065 Cl      1  UNL1       -0.0822
     30 C         141.8117  145.3419  163.1965 C.ar    1  UNL1        0.0108
@<TRIPOS>BOND
     1     9    10    2
     2    10    13    1
     3    13    14    1
     4    14    15    1
     5    15    16   ar
     6    16    17   ar
     7    17    18   ar
     8    18    19   ar
     9    10    11   am
    10    11     1    1
    11     1     2    1
    12     2     3    1
    13     3     4    1
    14     4     5   am
    15     5     6    2
    16     5    21    1
    17    21    22    1
    18    22    23    1
    19    23    24   ar
    20    24    25   ar
    21    25    26    1
    22    25    27   ar
    23    27    28   ar
    24    28    29    1
    25    28    30   ar
    26     4     7    1
    27     7     8    1
    28    19    15   ar
    29     8     1    1
    30    30    23   ar
    31    19    20    1
    32    11    12    1
@<TRIPOS>MOLECULE
*****
 30 32 0 0 0
SMALL
GASTEIGER

@<TRIPOS>ATOM
      1 C         140.0402  141.4270  166.3757 C.3     1  UNL1        0.0750
      2 C         140.1359  142.9205  166.2750 C.3     1  UNL1        0.0412
      3 C         139.5571  143.6307  165.0874 C.3     1  UNL1        0.0984
      4 N         138.8826  142.8474  164.0004 N.am    1  UNL1       -0.2459
      5 C         138.3037  143.5577  162.8127 C.2     1  UNL1        0.4052
      6 O         137.6293  142.7743  161.7258 O.2     1  UNL1       -0.2262
      7 C         138.7869  141.3539  164.1011 C.3     1  UNL1        0.0984
      8 C         139.3657  140.6436  165.2887 C.3     1  UNL1        0.0412
      9 O         142.7541  140.1618  166.1910 O.2     1  UNL1       -0.2751
     10 C         141.9760  140.0841  167.4710 C.2     1  UNL1        0.2228
     11 N         140.6191  140.7167  167.5634 N.am    1  UNL1       -0.3058
     12 H         140.1083  140.6657  168.4035 H       1  UNL1        0.1494
     13 C         142.5548  139.3739  168.6587 C.3     1  UNL1        0.0914
     14 C         142.4233  139.9722  170.0279 C.3     1  UNL1        0.0564
     15 C         142.7968  141.4064  170.2586 C.ar    1  UNL1        0.0745
     16 C         141.8475  142.5262  170.5669 C.ar    1  UNL1        0.1378
     17 N         142.6492  143.7846  170.7204 N.ar    1  UNL1       -0.1277
     18 N         144.0941  143.4426  170.5069 N.ar    1  UNL1       -0.0675
     19 N         144.1853  141.9728  170.2215 N.ar    1  UNL1       -0.2605
     20 H         145.0114  141.4684  170.0415 H       1  UNL1        0.1903
     21 O         138.3994  145.0512  162.7121 O.3     1  UNL1       -0.4295
     22 C         139.5192  145.6805  161.9373 C.3     1  UNL1        0.2368
     23 C         140.9070  145.1198  162.0356 C.ar    1  UNL1        0.0230
     24 C         141.7634  145.4414  163.2243 C.ar    1  UNL1        0.0108
     25 C         143.1511  144.8807  163.3226 C.ar    1  UNL1        0.0583
     26 CL        144.0076  145.2023  164.5113 Cl      1  UNL1       -0.0822
     27 C         143.6826  143.9984  162.2320 C.ar    1  UNL1        0.0228
     28 C         142.8261  143.6768  161.0432 C.ar    1  UNL1        0.0583
     29 CL        143.3575  142.7946  159.9527 Cl      1  UNL1       -0.0822
     30 C         141.4383  144.2376  160.9450 C.ar    1  UNL1        0.0108
@<TRIPOS>BOND
     1     9    10    2
     2    10    13    1
     3    13    14    1
     4    14    15    1
     5    15    16   ar
     6    16    17   ar
     7    17    18   ar
     8    18    19   ar
     9    10    11   am
    10    11     1    1
    11     1     2    1
    12     2     3    1
    13     3     4    1
    14     4     5   am
    15     5     6    2
    16     5    21    1
    17    21    22    1
    18    22    23    1
    19    23    24   ar
    20    24    25   ar
    21    25    26    1
    22    25    27   ar
    23    27    28   ar
    24    28    29    1
    25    28    30   ar
    26     4     7    1
    27     7     8    1
    28    19    15   ar
    29     8     1    1
    30    30    23   ar
    31    19    20    1
    32    11    12    1
@<TRIPOS>MOLECULE
*****
 30 32 0 0 0
SMALL
GASTEIGER

@<TRIPOS>ATOM
      1 C         142.2246  139.7723  166.0868 C.3     1  UNL1        0.0750
      2 C         140.8467  139.1799  166.1123 C.3     1  UNL1        0.0412
      3 C         140.2321  138.6562  164.8483 C.3     1  UNL1        0.0984
      4 N         140.9952  138.7247  163.5587 N.am    1  UNL1       -0.2459
      5 C         140.3805  138.2009  162.2947 C.2     1  UNL1        0.4052
      6 O         141.1436  138.2695  161.0051 O.2     1  UNL1       -0.2262
      7 C         142.3731  139.3171  163.5332 C.3     1  UNL1        0.0984
      8 C         142.9877  139.8408  164.7972 C.3     1  UNL1        0.0412
      9 O         141.7237  142.6055  166.9364 O.2     1  UNL1       -0.2751
     10 C         142.5889  141.7127  167.7756 C.2     1  UNL1        0.2228
     11 N         142.8393  140.2961  167.3508 N.am    1  UNL1       -0.3058
     12 H         143.4072  139.7101  167.9017 H       1  UNL1        0.1494
     13 C         143.2037  142.2365  169.0397 C.3     1  UNL1        0.0914
     14 C         142.3570  142.4244  170.2636 C.3     1  UNL1        0.0564
     15 C         141.1160  141.6029  170.4503 C.ar    1  UNL1        0.0745
     16 C         139.7112  142.0535  170.1789 C.ar    1  UNL1        0.1378
     17 N         138.7888  140.9157  170.5021 N.ar    1  UNL1       -0.1277
     18 N         139.6235  139.7618  170.9733 N.ar    1  UNL1       -0.0675
     19 N         141.0618  140.1866  170.9413 N.ar    1  UNL1       -0.2605
     20 H         141.8345  139.6330  171.1975 H       1  UNL1        0.1903
     21 O         139.0027  137.6086  162.3202 O.3     1  UNL1       -0.4295
     22 C         137.8238  138.4331  161.8950 C.3     1  UNL1        0.2368
     23 C         137.9252  139.9294  161.8694 C.ar    1  UNL1        0.0230
     24 C         137.6961  140.7183  163.1245 C.ar    1  UNL1        0.0108
     25 C         137.7975  142.2146  163.0988 C.ar    1  UNL1        0.0583
     26 CL        137.5684  143.0035  164.3539 Cl      1  UNL1       -0.0822
     27 C         138.1281  142.9221  161.8181 C.ar    1  UNL1        0.0228
     28 C         138.3572  142.1333  160.5631 C.ar    1  UNL1        0.0583
     29 CL        138.6878  142.8407  159.2824 Cl      1  UNL1       -0.0822
     30 C         138.2558  140.6369  160.5887 C.ar    1  UNL1        0.0108
@<TRIPOS>BOND
     1     9    10    2
     2    10    13    1
     3    13    14    1
     4    14    15    1
     5    15    16   ar
     6    16    17   ar
     7    17    18   ar
     8    18    19   ar
     9    10    11   am
    10    11     1    1
    11     1     2    1
    12     2     3    1
    13     3     4    1
    14     4     5   am
    15     5     6    2
    16     5    21    1
    17    21    22    1
    18    22    23    1
    19    23    24   ar
    20    24    25   ar
    21    25    26    1
    22    25    27   ar
    23    27    28   ar
    24    28    29    1
    25    28    30   ar
    26     4     7    1
    27     7     8    1
    28    19    15   ar
    29     8     1    1
    30    30    23   ar
    31    19    20    1
    32    11    12    1
@<TRIPOS>MOLECULE
*****
 30 32 0 0 0
SMALL
GASTEIGER

@<TRIPOS>ATOM
      1 C         142.9753  141.1682  166.0077 C.3     1  UNL1        0.0750
      2 C         142.6278  142.6192  165.8530 C.3     1  UNL1        0.0412
      3 C         142.6007  143.2426  164.4890 C.3     1  UNL1        0.0984
      4 N         142.9211  142.4150  163.2797 N.am    1  UNL1       -0.2459
      5 C         142.8941  143.0385  161.9156 C.2     1  UNL1        0.4052
      6 O         143.2145  142.2109  160.7063 O.2     1  UNL1       -0.2262
      7 C         143.2686  140.9641  163.4344 C.3     1  UNL1        0.0984
      8 C         143.2957  140.3407  164.7984 C.3     1  UNL1        0.0412
      9 O         140.4185  140.2823  167.3031 O.2     1  UNL1       -0.2751
     10 C         141.7240  140.1018  168.0195 C.2     1  UNL1        0.2228
     11 N         143.0023  140.5447  167.3718 N.am    1  UNL1       -0.3058
     12 H         143.8592  140.4263  167.8420 H       1  UNL1        0.1494
     13 C         141.7510  139.4783  169.3835 C.3     1  UNL1        0.0914
     14 C         141.0525  140.1493  170.5289 C.3     1  UNL1        0.0564
     15 C         140.8475  141.6352  170.5155 C.ar    1  UNL1        0.0745
     16 C         141.9190  142.6716  170.3488 C.ar    1  UNL1        0.1378
     17 N         141.2687  144.0225  170.3968 N.ar    1  UNL1       -0.1277
     18 N         139.7953  143.8209  170.5931 N.ar    1  UNL1       -0.0675
     19 N         139.5350  142.3455  170.6665 N.ar    1  UNL1       -0.2605
     20 H         138.6569  141.9183  170.7917 H       1  UNL1        0.1903
     21 O         142.5466  144.4894  161.7609 O.3     1  UNL1       -0.4295
     22 C         141.1227  144.8988  161.5265 C.3     1  UNL1        0.2368
     23 C         140.0344  144.3688  162.4123 C.ar    1  UNL1        0.0230
     24 C         139.2576  143.1534  162.0006 C.ar    1  UNL1        0.0108
     25 C         138.1693  142.6233  162.8864 C.ar    1  UNL1        0.0583
     26 CL        137.3925  141.4079  162.4747 Cl      1  UNL1       -0.0822
     27 C         137.8578  143.3086  164.1839 C.ar    1  UNL1        0.0228
     28 C         138.6345  144.5240  164.5955 C.ar    1  UNL1        0.0583
     29 CL        138.3230  145.2093  165.8929 Cl      1  UNL1       -0.0822
     30 C         139.7229  145.0540  163.7097 C.ar    1  UNL1        0.0108
@<TRIPOS>BOND
     1     9    10    2
     2    10    13    1
     3    13    14    1
     4    14    15    1
     5    15    16   ar
     6    16    17   ar
     7    17    18   ar
     8    18    19   ar
     9    10    11   am
    10    11     1    1
    11     1     2    1
    12     2     3    1
    13     3     4    1
    14     4     5   am
    15     5     6    2
    16     5    21    1
    17    21    22    1
    18    22    23    1
    19    23    24   ar
    20    24    25   ar
    21    25    26    1
    22    25    27   ar
    23    27    28   ar
    24    28    29    1
    25    28    30   ar
    26     4     7    1
    27     7     8    1
    28    19    15   ar
    29     8     1    1
    30    30    23   ar
    31    19    20    1
    32    11    12    1
@<TRIPOS>MOLECULE
*****
 30 32 0 0 0
SMALL
GASTEIGER

@<TRIPOS>ATOM
      1 C         139.7219  140.0467  166.5756 C.3     1  UNL1        0.0750
      2 C         139.3653  141.4113  166.0653 C.3     1  UNL1        0.0412
      3 C         138.7241  141.5643  164.7179 C.3     1  UNL1        0.0984
      4 N         138.4396  140.3525  163.8808 N.am    1  UNL1       -0.2459
      5 C         137.7985  140.5055  162.5334 C.2     1  UNL1        0.4052
      6 O         137.5140  139.2937  161.6963 O.2     1  UNL1       -0.2262
      7 C         138.7963  138.9878  164.3911 C.3     1  UNL1        0.0984
      8 C         139.4374  138.8349  165.7385 C.3     1  UNL1        0.0412
      9 O         142.7041  140.2279  166.8471 O.2     1  UNL1       -0.2751
     10 C         141.8542  139.9843  168.0588 C.2     1  UNL1        0.2228
     11 N         140.3631  139.8937  167.9231 N.am    1  UNL1       -0.3058
     12 H         139.8053  139.7338  168.7184 H       1  UNL1        0.1494
     13 C         142.4953  139.8314  169.4062 C.3     1  UNL1        0.0914
     14 C         142.6706  141.0279  170.2936 C.3     1  UNL1        0.0564
     15 C         141.5350  141.9877  170.4915 C.ar    1  UNL1        0.0745
     16 C         141.3894  143.3287  169.8353 C.ar    1  UNL1        0.1378
     17 N         140.1100  143.9447  170.3186 N.ar    1  UNL1       -0.1277
     18 N         139.4648  142.9844  171.2734 N.ar    1  UNL1       -0.0675
     19 N         140.3455  141.7749  171.3802 N.ar    1  UNL1       -0.2605
     20 H         140.1732  140.9808  171.9361 H       1  UNL1        0.1903
     21 O         137.4418  141.8702  162.0231 O.3     1  UNL1       -0.4295
     22 C         138.3424  142.5639  161.0444 C.3     1  UNL1        0.2368
     23 C         139.7681  142.8519  161.4109 C.ar    1  UNL1        0.0230
     24 C         140.0940  144.0182  162.2960 C.ar    1  UNL1        0.0108
     25 C         141.5197  144.3062  162.6625 C.ar    1  UNL1        0.0583
     26 CL        141.8457  145.4725  163.5477 Cl      1  UNL1       -0.0822
     27 C         142.6196  143.4279  162.1438 C.ar    1  UNL1        0.0228
     28 C         142.2936  142.2616  161.2587 C.ar    1  UNL1        0.0583
     29 CL        143.3934  141.3833  160.7400 Cl      1  UNL1       -0.0822
     30 C         140.8678  141.9736  160.8922 C.ar    1  UNL1        0.0108
@<TRIPOS>BOND
     1     9    10    2
     2    10    13    1
     3    13    14    1
     4    14    15    1
     5    15    16   ar
     6    16    17   ar
     7    17    18   ar
     8    18    19   ar
     9    10    11   am
    10    11     1    1
    11     1     2    1
    12     2     3    1
    13     3     4    1
    14     4     5   am
    15     5     6    2
    16     5    21    1
    17    21    22    1
    18    22    23    1
    19    23    24   ar
    20    24    25   ar
    21    25    26    1
    22    25    27   ar
    23    27    28   ar
    24    28    29    1
    25    28    30   ar
    26     4     7    1
    27     7     8    1
    28    19    15   ar
    29     8     1    1
    30    30    23   ar
    31    19    20    1
    32    11    12    1
@<TRIPOS>MOLECULE
*****
 30 32 0 0 0
SMALL
GASTEIGER

@<TRIPOS>ATOM
      1 C         138.6401  139.1754  165.8954 C.3     1  UNL1        0.0750
      2 C         137.9366  140.2554  165.1283 C.3     1  UNL1        0.0412
      3 C         137.9286  140.2266  163.6286 C.3     1  UNL1        0.0984
      4 N         138.6241  139.1176  162.8961 N.am    1  UNL1       -0.2459
      5 C         138.6160  139.0888  161.3963 C.2     1  UNL1        0.4052
      6 O         139.3115  137.9799  160.6638 O.2     1  UNL1       -0.2262
      7 C         139.3276  138.0376  163.6632 C.3     1  UNL1        0.0984
      8 C         139.3356  138.0665  165.1629 C.3     1  UNL1        0.0412
      9 O         140.4752  141.0508  167.3499 O.2     1  UNL1       -0.2751
     10 C         139.5657  140.1419  168.1223 C.2     1  UNL1        0.2228
     11 N         138.6481  139.2043  167.3952 N.am    1  UNL1       -0.3058
     12 H         138.0512  138.6077  167.9022 H       1  UNL1        0.1494
     13 C         139.5737  140.1708  169.6221 C.3     1  UNL1        0.0914
     14 C         140.5054  141.0943  170.3495 C.3     1  UNL1        0.0564
     15 C         140.1431  142.5391  170.5256 C.ar    1  UNL1        0.0745
     16 C         140.7913  143.7014  169.8335 C.ar    1  UNL1        0.1378
     17 N         140.1178  144.9560  170.3050 N.ar    1  UNL1       -0.1277
     18 N         139.0533  144.5691  171.2885 N.ar    1  UNL1       -0.0675
     19 N         139.0690  143.0754  171.4248 N.ar    1  UNL1       -0.2605
     20 H         138.4780  142.5409  172.0030 H       1  UNL1        0.1903
     21 O         137.9125  140.1688  160.6292 O.3     1  UNL1       -0.4295
     22 C         138.6839  141.3486  160.1161 C.3     1  UNL1        0.2368
     23 C         139.4977  142.1813  161.0618 C.ar    1  UNL1        0.0230
     24 C         140.9956  142.1106  161.0248 C.ar    1  UNL1        0.0108
     25 C         141.8093  142.9433  161.9705 C.ar    1  UNL1        0.0583
     26 CL        143.3072  142.8726  161.9335 Cl      1  UNL1       -0.0822
     27 C         141.1252  143.8469  162.9532 C.ar    1  UNL1        0.0228
     28 C         139.6273  143.9176  162.9902 C.ar    1  UNL1        0.0583
     29 CL        138.9431  144.8211  163.9728 Cl      1  UNL1       -0.0822
     30 C         138.8135  143.0848  162.0444 C.ar    1  UNL1        0.0108
@<TRIPOS>BOND
     1     9    10    2
     2    10    13    1
     3    13    14    1
     4    14    15    1
     5    15    16   ar
     6    16    17   ar
     7    17    18   ar
     8    18    19   ar
     9    10    11   am
    10    11     1    1
    11     1     2    1
    12     2     3    1
    13     3     4    1
    14     4     5   am
    15     5     6    2
    16     5    21    1
    17    21    22    1
    18    22    23    1
    19    23    24   ar
    20    24    25   ar
    21    25    26    1
    22    25    27   ar
    23    27    28   ar
    24    28    29    1
    25    28    30   ar
    26     4     7    1
    27     7     8    1
    28    19    15   ar
    29     8     1    1
    30    30    23   ar
    31    19    20    1
    32    11    12    1
@<TRIPOS>MOLECULE
*****
 30 32 0 0 0
SMALL
GASTEIGER

@<TRIPOS>ATOM
      1 C         142.2162  141.0809  168.0905 C.3     1  UNL1        0.0750
      2 C         142.1260  140.7479  166.6307 C.3     1  UNL1        0.0412
      3 C         141.2442  141.5601  165.7293 C.3     1  UNL1        0.0984
      4 N         140.4526  142.7054  166.2876 N.am    1  UNL1       -0.2459
      5 C         139.5707  143.5177  165.3861 C.2     1  UNL1        0.4052
      6 O         138.7792  144.6630  165.9444 O.2     1  UNL1       -0.2262
      7 C         140.5428  143.0384  167.7474 C.3     1  UNL1        0.0984
      8 C         141.4246  142.2262  168.6488 C.3     1  UNL1        0.0412
      9 O         140.9964  139.2283  170.1104 O.2     1  UNL1       -0.2751
     10 C         142.4881  139.3424  170.0019 C.2     1  UNL1        0.2228
     11 N         143.0980  140.2686  168.9920 N.am    1  UNL1       -0.3058
     12 H         144.0771  140.3435  168.9208 H       1  UNL1        0.1494
     13 C         143.3700  138.5301  170.9035 C.3     1  UNL1        0.0914
     14 C         143.6831  137.1039  170.5601 C.3     1  UNL1        0.0564
     15 C         144.7559  136.3704  171.3091 C.ar    1  UNL1        0.0745
     16 C         144.5455  135.2248  172.2543 C.ar    1  UNL1        0.1378
     17 N         145.8871  134.8000  172.7737 N.ar    1  UNL1       -0.1277
     18 N         146.9266  135.6831  172.1495 N.ar    1  UNL1       -0.0675
     19 N         146.2275  136.6537  171.2443 N.ar    1  UNL1       -0.2605
     20 H         146.6587  137.3537  170.7028 H       1  UNL1        0.1903
     21 O         139.4805  143.1846  163.9264 O.3     1  UNL1       -0.4295
     22 C         138.5270  142.1265  163.4560 C.3     1  UNL1        0.2368
     23 C         138.7312  140.6977  163.8645 C.ar    1  UNL1        0.0230
     24 C         138.1048  140.1814  165.1258 C.ar    1  UNL1        0.0108
     25 C         138.3090  138.7526  165.5343 C.ar    1  UNL1        0.0583
     26 CL        137.6826  138.2363  166.7956 Cl      1  UNL1       -0.0822
     27 C         139.1397  137.8401  164.6814 C.ar    1  UNL1        0.0228
     28 C         139.7661  138.3564  163.4200 C.ar    1  UNL1        0.0583
     29 CL        140.5968  137.4440  162.5672 Cl      1  UNL1       -0.0822
     30 C         139.5619  139.7853  163.0116 C.ar    1  UNL1        0.0108
@<TRIPOS>BOND
     1     9    10    2
     2    10    13    1
     3    13    14    1
     4    14    15    1
     5    15    16   ar
     6    16    17   ar
     7    17    18   ar
     8    18    19   ar
     9    10    11   am
    10    11     1    1
    11     1     2    1
    12     2     3    1
    13     3     4    1
    14     4     5   am
    15     5     6    2
    16     5    21    1
    17    21    22    1
    18    22    23    1
    19    23    24   ar
    20    24    25   ar
    21    25    26    1
    22    25    27   ar
    23    27    28   ar
    24    28    29    1
    25    28    30   ar
    26     4     7    1
    27     7     8    1
    28    19    15   ar
    29     8     1    1
    30    30    23   ar
    31    19    20    1
    32    11    12    1
@<TRIPOS>MOLECULE
*****
 30 32 0 0 0
SMALL
GASTEIGER

@<TRIPOS>ATOM
      1 C         143.1230  141.9243  165.2137 C.3     1  UNL1        0.0750
      2 C         142.3110  143.1674  165.0013 C.3     1  UNL1        0.0412
      3 C         142.1839  143.7545  163.6269 C.3     1  UNL1        0.0984
      4 N         142.8689  143.0984  162.4648 N.am    1  UNL1       -0.2459
      5 C         142.7418  143.6855  161.0903 C.2     1  UNL1        0.4052
      6 O         143.4268  143.0294  159.9282 O.2     1  UNL1       -0.2262
      7 C         143.6809  141.8552  162.6772 C.3     1  UNL1        0.0984
      8 C         143.8080  141.2682  164.0517 C.3     1  UNL1        0.0412
      9 O         141.6495  139.4059  165.9113 O.2     1  UNL1       -0.2751
     10 C         142.5134  140.0780  166.9370 C.2     1  UNL1        0.2228
     11 N         143.2501  141.3372  166.5882 N.am    1  UNL1       -0.3058
     12 H         143.8171  141.7783  167.2614 H       1  UNL1        0.1494
     13 C         142.6405  139.4909  168.3115 C.3     1  UNL1        0.0914
     14 C         141.4636  139.4973  169.2416 C.3     1  UNL1        0.0564
     15 C         141.3327  140.5737  170.2780 C.ar    1  UNL1        0.0745
     16 C         142.4039  141.5423  170.6834 C.ar    1  UNL1        0.1378
     17 N         141.8408  142.4378  171.7470 N.ar    1  UNL1       -0.1277
     18 N         140.4216  142.0225  171.9988 N.ar    1  UNL1       -0.0675
     19 N         140.1076  140.8705  171.0910 N.ar    1  UNL1       -0.2605
     20 H         139.2483  140.3930  171.0380 H       1  UNL1        0.1903
     21 O         141.9298  144.9287  160.8779 O.3     1  UNL1       -0.4295
     22 C         140.4905  144.8236  160.4686 C.3     1  UNL1        0.2368
     23 C         139.5302  144.0271  161.3013 C.ar    1  UNL1        0.0230
     24 C         139.0380  144.5744  162.6083 C.ar    1  UNL1        0.0108
     25 C         138.0777  143.7779  163.4409 C.ar    1  UNL1        0.0583
     26 CL        137.5855  144.3252  164.7479 Cl      1  UNL1       -0.0822
     27 C         137.6096  142.4339  162.9667 C.ar    1  UNL1        0.0228
     28 C         138.1019  141.8866  161.6597 C.ar    1  UNL1        0.0583
     29 CL        137.6339  140.5428  161.1855 Cl      1  UNL1       -0.0822
     30 C         139.0622  142.6832  160.8270 C.ar    1  UNL1        0.0108
@<TRIPOS>BOND
     1     9    10    2
     2    10    13    1
     3    13    14    1
     4    14    15    1
     5    15    16   ar
     6    16    17   ar
     7    17    18   ar
     8    18    19   ar
     9    10    11   am
    10    11     1    1
    11     1     2    1
    12     2     3    1
    13     3     4    1
    14     4     5   am
    15     5     6    2
    16     5    21    1
    17    21    22    1
    18    22    23    1
    19    23    24   ar
    20    24    25   ar
    21    25    26    1
    22    25    27   ar
    23    27    28   ar
    24    28    29    1
    25    28    30   ar
    26     4     7    1
    27     7     8    1
    28    19    15   ar
    29     8     1    1
    30    30    23   ar
    31    19    20    1
    32    11    12    1
