@<TRIPOS>MOLECULE
*****
 34 38 0 0 0
SMALL
GASTEIGER

@<TRIPOS>ATOM
      1 C         140.0611  137.8711  161.8333 C.3     1  UNL1        0.0871
      2 N         140.6768  137.4526  163.1356 N.pl3   1  UNL1       -0.3328
      3 H         140.8705  136.5025  163.3057 H       1  UNL1        0.1468
      4 C         140.9976  138.4819  164.1786 C.ar    1  UNL1        0.0431
      5 C         140.0516  138.7136  165.3194 C.ar    1  UNL1        0.0045
      6 C         140.3723  139.7428  166.3624 C.ar    1  UNL1        0.0561
      7 N         141.6390  140.5404  166.2645 N.ar    1  UNL1       -0.2499
      8 C         142.5849  140.3086  165.1237 C.ar    1  UNL1        0.0829
      9 C         143.8516  141.1062  165.0258 C.ar    1  UNL1        0.0305
     10 C         144.7974  140.8745  163.8850 C.ar    1  UNL1        0.0592
     11 CL        146.0641  141.6720  163.7871 Cl      1  UNL1       -0.0822
     12 C         144.4767  139.8452  162.8420 C.ar    1  UNL1        0.0115
     13 C         143.2101  139.0477  162.9398 C.ar    1  UNL1        0.0036
     14 C         142.2642  139.2794  164.0807 C.ar    1  UNL1        0.0305
     15 C         139.4264  139.9745  167.5032 C.3     1  UNL1        0.0455
     16 C         138.1598  139.1770  167.6011 C.3     1  UNL1        0.0066
     17 C         137.8391  138.1478  166.5581 C.3     1  UNL1        0.0052
     18 C         138.7850  137.9160  165.4173 C.3     1  UNL1        0.0288
     19 C         138.5696  137.9648  161.7048 C.3     1  UNL1        0.0226
     20 C         137.9601  138.9186  160.7206 C.3     1  UNL1        0.0188
     21 C         137.2676  140.1573  161.2067 C.3     1  UNL1        0.0686
     22 N         137.3329  140.5326  162.6575 N.3     1  UNL1       -0.2982
     23 H         136.4460  140.9817  162.8857 H       1  UNL1        0.1232
     24 O         143.9895  145.3087  164.2789 O.2     1  UNL1       -0.2726
     25 C         142.9039  144.3974  163.7881 C.2     1  UNL1        0.2497
     26 C         143.0467  143.7053  162.4650 C.3     1  UNL1        0.1129
     27 C         141.9611  142.7940  161.9743 C.2     1  UNL1       -0.0198
     28 C         140.7327  142.5747  162.8066 C.2     1  UNL1       -0.0134
     29 C         140.5898  143.2667  164.1298 C.2     1  UNL1        0.0468
     30 N         141.6754  144.1781  164.6205 N.am    1  UNL1       -0.1836
     31 C         139.3614  143.0474  164.9621 C.3     1  UNL1        0.0443
     32 C         138.2758  142.1360  164.4714 C.3     1  UNL1        0.0221
     33 C         138.4186  141.4440  163.1483 C.3     1  UNL1        0.0588
     34 C         139.6470  141.6633  162.3158 C.3     1  UNL1        0.0427
@<TRIPOS>BOND
     1    24    25    2
     2    25    26    1
     3    26    27    1
     4    27    28    2
     5    28    29    1
     6    29    30    2
     7    29    31    1
     8    31    32    1
     9    32    33    1
    10    33    22    1
    11    22    21    1
    12    21    20    1
    13    20    19    1
    14    19     1    1
    15     1     2    1
    16     2     4    1
    17     4     5   ar
    18     5     6   ar
    19     6     7   ar
    20     7     8   ar
    21     8     9   ar
    22     9    10   ar
    23    10    11    1
    24    10    12   ar
    25    12    13   ar
    26    13    14   ar
    27     6    15    1
    28    15    16    1
    29    16    17    1
    30    17    18    1
    31    33    34    1
    32    30    25    1
    33    14     4   ar
    34    34    28    1
    35    18     5    1
    36    14     8   ar
    37    22    23    1
    38     2     3    1
@<TRIPOS>MOLECULE
*****
 34 38 0 0 0
SMALL
GASTEIGER

@<TRIPOS>ATOM
      1 C         138.8720  138.0893  165.2767 C.3     1  UNL1        0.0871
      2 N         138.1130  139.3000  165.7332 N.pl3   1  UNL1       -0.3328
      3 H         137.1540  139.2291  165.9442 H       1  UNL1        0.1468
      4 C         138.8153  140.6185  165.8681 C.ar    1  UNL1        0.0431
      5 C         138.6388  141.6734  164.8162 C.ar    1  UNL1        0.0045
      6 C         139.3411  142.9919  164.9512 C.ar    1  UNL1        0.0561
      7 N         140.2198  143.2557  166.1380 N.ar    1  UNL1       -0.2499
      8 C         140.3962  142.2009  167.1897 C.ar    1  UNL1        0.0829
      9 C         141.2749  142.4646  168.3765 C.ar    1  UNL1        0.0305
     10 C         141.4514  141.4098  169.4283 C.ar    1  UNL1        0.0592
     11 CL        142.3300  141.6736  170.6150 Cl      1  UNL1       -0.0822
     12 C         140.7491  140.0913  169.2933 C.ar    1  UNL1        0.0115
     13 C         139.8704  139.8275  168.1066 C.ar    1  UNL1        0.0036
     14 C         139.6940  140.8823  167.0548 C.ar    1  UNL1        0.0305
     15 C         139.1647  144.0467  163.8994 C.3     1  UNL1        0.0455
     16 C         138.2860  143.7829  162.7127 C.3     1  UNL1        0.0066
     17 C         137.5837  142.4644  162.5778 C.3     1  UNL1        0.0052
     18 C         137.7601  141.4096  163.6296 C.3     1  UNL1        0.0288
     19 C         140.0738  138.2466  164.3931 C.3     1  UNL1        0.0226
     20 C         141.3830  137.6323  164.7912 C.3     1  UNL1        0.0188
     21 C         142.6320  138.4630  164.7914 C.3     1  UNL1        0.0686
     22 N         142.6013  139.8634  165.3278 N.3     1  UNL1       -0.2982
     23 H         141.7705  139.9356  165.9152 H       1  UNL1        0.1232
     24 O         141.6464  145.5909  159.3250 O.2     1  UNL1       -0.2726
     25 C         141.6816  144.4264  160.2698 C.2     1  UNL1        0.2497
     26 C         140.9383  143.1670  159.9361 C.3     1  UNL1        0.1129
     27 C         140.9736  142.0026  160.8810 C.2     1  UNL1       -0.0198
     28 C         141.7521  142.0974  162.1595 C.2     1  UNL1       -0.0134
     29 C         142.4955  143.3569  162.4933 C.2     1  UNL1        0.0468
     30 N         142.4603  144.5213  161.5485 N.am    1  UNL1       -0.1836
     31 C         143.2741  143.4517  163.7719 C.3     1  UNL1        0.0443
     32 C         143.3094  142.2873  164.7167 C.3     1  UNL1        0.0221
     33 C         142.5661  141.0279  164.3830 C.3     1  UNL1        0.0588
     34 C         141.7874  140.9330  163.1044 C.3     1  UNL1        0.0427
@<TRIPOS>BOND
     1    24    25    2
     2    25    26    1
     3    26    27    1
     4    27    28    2
     5    28    29    1
     6    29    30    2
     7    29    31    1
     8    31    32    1
     9    32    33    1
    10    33    22    1
    11    22    21    1
    12    21    20    1
    13    20    19    1
    14    19     1    1
    15     1     2    1
    16     2     4    1
    17     4     5   ar
    18     5     6   ar
    19     6     7   ar
    20     7     8   ar
    21     8     9   ar
    22     9    10   ar
    23    10    11    1
    24    10    12   ar
    25    12    13   ar
    26    13    14   ar
    27     6    15    1
    28    15    16    1
    29    16    17    1
    30    17    18    1
    31    33    34    1
    32    30    25    1
    33    14     4   ar
    34    34    28    1
    35    18     5    1
    36    14     8   ar
    37    22    23    1
    38     2     3    1
@<TRIPOS>MOLECULE
*****
 34 38 0 0 0
SMALL
GASTEIGER

@<TRIPOS>ATOM
      1 C         138.3110  139.2675  164.5291 C.3     1  UNL1        0.0871
      2 N         138.2165  140.4643  165.4285 N.pl3   1  UNL1       -0.3328
      3 H         137.4088  140.6086  165.9726 H       1  UNL1        0.1468
      4 C         139.3526  141.4411  165.4990 C.ar    1  UNL1        0.0431
      5 C         140.4683  141.2246  166.4780 C.ar    1  UNL1        0.0045
      6 C         141.6045  142.2014  166.5485 C.ar    1  UNL1        0.0561
      7 N         141.6249  143.3948  165.6398 N.ar    1  UNL1       -0.2499
      8 C         140.5093  143.6113  164.6608 C.ar    1  UNL1        0.0829
      9 C         140.5298  144.8046  163.7522 C.ar    1  UNL1        0.0305
     10 C         139.4142  145.0211  162.7732 C.ar    1  UNL1        0.0592
     11 CL        139.4347  146.2144  161.8646 Cl      1  UNL1       -0.0822
     12 C         138.2781  144.0443  162.7028 C.ar    1  UNL1        0.0115
     13 C         138.2575  142.8510  163.6113 C.ar    1  UNL1        0.0036
     14 C         139.3732  142.6344  164.5904 C.ar    1  UNL1        0.0305
     15 C         142.7201  141.9850  167.5275 C.3     1  UNL1        0.0455
     16 C         142.6995  140.7917  168.4361 C.3     1  UNL1        0.0066
     17 C         141.5634  139.8148  168.3656 C.3     1  UNL1        0.0052
     18 C         140.4478  140.0313  167.3866 C.3     1  UNL1        0.0288
     19 C         138.7559  137.9464  165.0829 C.3     1  UNL1        0.0226
     20 C         140.1248  137.4224  164.7645 C.3     1  UNL1        0.0188
     21 C         140.9464  138.0736  163.6918 C.3     1  UNL1        0.0686
     22 N         142.0072  139.0684  164.0595 N.3     1  UNL1       -0.2982
     23 H         141.8086  139.3717  165.0129 H       1  UNL1        0.1232
     24 O         141.8933  145.6428  158.9103 O.2     1  UNL1       -0.2726
     25 C         141.7133  144.4004  159.7313 C.2     1  UNL1        0.2497
     26 C         140.5192  143.5205  159.5081 C.3     1  UNL1        0.1129
     27 C         140.3392  142.2781  160.3291 C.2     1  UNL1       -0.0198
     28 C         141.3532  141.9156  161.3733 C.2     1  UNL1       -0.0134
     29 C         142.5473  142.7956  161.5965 C.2     1  UNL1        0.0468
     30 N         142.7274  144.0380  160.7755 N.am    1  UNL1       -0.1836
     31 C         143.5613  142.4331  162.6407 C.3     1  UNL1        0.0443
     32 C         143.3813  141.1907  163.4617 C.3     1  UNL1        0.0221
     33 C         142.1872  140.3108  163.2385 C.3     1  UNL1        0.0588
     34 C         141.1731  140.6732  162.1943 C.3     1  UNL1        0.0427
@<TRIPOS>BOND
     1    24    25    2
     2    25    26    1
     3    26    27    1
     4    27    28    2
     5    28    29    1
     6    29    30    2
     7    29    31    1
     8    31    32    1
     9    32    33    1
    10    33    22    1
    11    22    21    1
    12    21    20    1
    13    20    19    1
    14    19     1    1
    15     1     2    1
    16     2     4    1
    17     4     5   ar
    18     5     6   ar
    19     6     7   ar
    20     7     8   ar
    21     8     9   ar
    22     9    10   ar
    23    10    11    1
    24    10    12   ar
    25    12    13   ar
    26    13    14   ar
    27     6    15    1
    28    15    16    1
    29    16    17    1
    30    17    18    1
    31    33    34    1
    32    30    25    1
    33    14     4   ar
    34    34    28    1
    35    18     5    1
    36    14     8   ar
    37    22    23    1
    38     2     3    1
@<TRIPOS>MOLECULE
*****
 34 38 0 0 0
SMALL
GASTEIGER

@<TRIPOS>ATOM
      1 C         142.0238  139.7725  161.4460 C.3     1  UNL1        0.0871
      2 N         140.6038  140.2476  161.3573 N.pl3   1  UNL1       -0.3328
      3 H         140.0951  140.1258  160.5233 H       1  UNL1        0.1468
      4 C         139.9589  140.9085  162.5394 C.ar    1  UNL1        0.0431
      5 C         139.9021  142.4051  162.6234 C.ar    1  UNL1        0.0045
      6 C         139.2572  143.0660  163.8055 C.ar    1  UNL1        0.0561
      7 N         138.6690  142.2302  164.9036 N.ar    1  UNL1       -0.2499
      8 C         138.7258  140.7337  164.8195 C.ar    1  UNL1        0.0829
      9 C         138.1376  139.8979  165.9175 C.ar    1  UNL1        0.0305
     10 C         138.1944  138.4014  165.8334 C.ar    1  UNL1        0.0592
     11 CL        137.6062  137.5657  166.9315 Cl      1  UNL1       -0.0822
     12 C         138.8393  137.7405  164.6514 C.ar    1  UNL1        0.0115
     13 C         139.4274  138.5762  163.5533 C.ar    1  UNL1        0.0036
     14 C         139.3707  140.0728  163.6374 C.ar    1  UNL1        0.0305
     15 C         139.2005  144.5625  163.8896 C.3     1  UNL1        0.0455
     16 C         139.7886  145.3982  162.7916 C.3     1  UNL1        0.0066
     17 C         140.4335  144.7373  161.6095 C.3     1  UNL1        0.0052
     18 C         140.4903  143.2408  161.5254 C.3     1  UNL1        0.0288
     19 C         143.1523  140.7484  161.2911 C.3     1  UNL1        0.0226
     20 C         144.3767  140.6215  162.1483 C.3     1  UNL1        0.0188
     21 C         144.4981  141.4285  163.4068 C.3     1  UNL1        0.0686
     22 N         143.2834  142.0761  164.0027 N.3     1  UNL1       -0.2982
     23 H         143.5609  143.0150  164.2890 H       1  UNL1        0.1232
     24 O         139.2187  139.8005  170.9344 O.2     1  UNL1       -0.2726
     25 C         139.9016  140.4286  169.7558 C.2     1  UNL1        0.2497
     26 C         139.9343  141.9217  169.6160 C.3     1  UNL1        0.1129
     27 C         140.6172  142.5498  168.4374 C.2     1  UNL1       -0.0198
     28 C         141.2674  141.6849  167.3987 C.2     1  UNL1       -0.0134
     29 C         141.2347  140.1917  167.5384 C.2     1  UNL1        0.0468
     30 N         140.5518  139.5636  168.7170 N.am    1  UNL1       -0.1836
     31 C         141.8849  139.3268  166.4997 C.3     1  UNL1        0.0443
     32 C         142.5678  139.9549  165.3211 C.3     1  UNL1        0.0221
     33 C         142.6005  141.4480  165.1813 C.3     1  UNL1        0.0588
     34 C         141.9503  142.3130  166.2201 C.3     1  UNL1        0.0427
@<TRIPOS>BOND
     1    24    25    2
     2    25    26    1
     3    26    27    1
     4    27    28    2
     5    28    29    1
     6    29    30    2
     7    29    31    1
     8    31    32    1
     9    32    33    1
    10    33    22    1
    11    22    21    1
    12    21    20    1
    13    20    19    1
    14    19     1    1
    15     1     2    1
    16     2     4    1
    17     4     5   ar
    18     5     6   ar
    19     6     7   ar
    20     7     8   ar
    21     8     9   ar
    22     9    10   ar
    23    10    11    1
    24    10    12   ar
    25    12    13   ar
    26    13    14   ar
    27     6    15    1
    28    15    16    1
    29    16    17    1
    30    17    18    1
    31    33    34    1
    32    30    25    1
    33    14     4   ar
    34    34    28    1
    35    18     5    1
    36    14     8   ar
    37    22    23    1
    38     2     3    1
@<TRIPOS>MOLECULE
*****
 34 38 0 0 0
SMALL
GASTEIGER

@<TRIPOS>ATOM
      1 C         142.1792  138.0334  161.9763 C.3     1  UNL1        0.0871
      2 N         142.9359  138.2537  163.2527 N.pl3   1  UNL1       -0.3328
      3 H         143.7443  137.7250  163.4432 H       1  UNL1        0.1468
      4 C         142.4609  139.2793  164.2387 C.ar    1  UNL1        0.0431
      5 C         143.2730  140.5164  164.4841 C.ar    1  UNL1        0.0045
      6 C         142.7980  141.5421  165.4702 C.ar    1  UNL1        0.0561
      7 N         141.5108  141.3307  166.2109 N.ar    1  UNL1       -0.2499
      8 C         140.6987  140.0937  165.9654 C.ar    1  UNL1        0.0829
      9 C         139.4115  139.8823  166.7061 C.ar    1  UNL1        0.0305
     10 C         138.5994  138.6453  166.4607 C.ar    1  UNL1        0.0592
     11 CL        137.3123  138.4339  167.2013 Cl      1  UNL1       -0.0822
     12 C         139.0745  137.6196  165.4746 C.ar    1  UNL1        0.0115
     13 C         140.3616  137.8309  164.7340 C.ar    1  UNL1        0.0036
     14 C         141.1737  139.0680  164.9794 C.ar    1  UNL1        0.0305
     15 C         143.6100  142.7791  165.7156 C.3     1  UNL1        0.0455
     16 C         144.8972  142.9904  164.9750 C.3     1  UNL1        0.0066
     17 C         145.3722  141.9648  163.9889 C.3     1  UNL1        0.0052
     18 C         144.5602  140.7277  163.7435 C.3     1  UNL1        0.0288
     19 C         142.8776  138.1754  160.6564 C.3     1  UNL1        0.0226
     20 C         142.1688  138.8112  159.4975 C.3     1  UNL1        0.0188
     21 C         141.9696  140.2976  159.4640 C.3     1  UNL1        0.0686
     22 N         142.8209  141.1878  160.3201 N.3     1  UNL1       -0.2982
     23 H         143.4536  140.5793  160.8396 H       1  UNL1        0.1232
     24 O         138.3143  145.3715  165.9715 O.2     1  UNL1       -0.2726
     25 C         138.9557  144.4576  164.9698 C.2     1  UNL1        0.2497
     26 C         138.2981  143.1580  164.6112 C.3     1  UNL1        0.1129
     27 C         138.9396  142.2442  163.6095 C.2     1  UNL1       -0.0198
     28 C         140.2387  142.6298  162.9665 C.2     1  UNL1       -0.0134
     29 C         140.8964  143.9294  163.3251 C.2     1  UNL1        0.0468
     30 N         140.2549  144.8433  164.3268 N.am    1  UNL1       -0.1836
     31 C         142.1955  144.3151  162.6821 C.3     1  UNL1        0.0443
     32 C         142.8370  143.4012  161.6805 C.3     1  UNL1        0.0221
     33 C         142.1794  142.1016  161.3218 C.3     1  UNL1        0.0588
     34 C         140.8802  141.7159  161.9648 C.3     1  UNL1        0.0427
@<TRIPOS>BOND
     1    24    25    2
     2    25    26    1
     3    26    27    1
     4    27    28    2
     5    28    29    1
     6    29    30    2
     7    29    31    1
     8    31    32    1
     9    32    33    1
    10    33    22    1
    11    22    21    1
    12    21    20    1
    13    20    19    1
    14    19     1    1
    15     1     2    1
    16     2     4    1
    17     4     5   ar
    18     5     6   ar
    19     6     7   ar
    20     7     8   ar
    21     8     9   ar
    22     9    10   ar
    23    10    11    1
    24    10    12   ar
    25    12    13   ar
    26    13    14   ar
    27     6    15    1
    28    15    16    1
    29    16    17    1
    30    17    18    1
    31    33    34    1
    32    30    25    1
    33    14     4   ar
    34    34    28    1
    35    18     5    1
    36    14     8   ar
    37    22    23    1
    38     2     3    1
@<TRIPOS>MOLECULE
*****
 34 38 0 0 0
SMALL
GASTEIGER

@<TRIPOS>ATOM
      1 C         142.4620  139.4154  161.7306 C.3     1  UNL1        0.0871
      2 N         140.9865  139.6316  161.5684 N.pl3   1  UNL1       -0.3328
      3 H         140.5130  139.2388  160.7998 H       1  UNL1        0.1468
      4 C         140.2325  140.4463  162.5772 C.ar    1  UNL1        0.0431
      5 C         139.5945  139.7754  163.7574 C.ar    1  UNL1        0.0045
      6 C         138.8405  140.5901  164.7662 C.ar    1  UNL1        0.0561
      7 N         138.7245  142.0758  164.5948 N.ar    1  UNL1       -0.2499
      8 C         139.3625  142.7467  163.4146 C.ar    1  UNL1        0.0829
      9 C         139.2465  144.2324  163.2432 C.ar    1  UNL1        0.0305
     10 C         139.8845  144.9033  162.0630 C.ar    1  UNL1        0.0592
     11 CL        139.7685  146.3889  161.8917 Cl      1  UNL1       -0.0822
     12 C         140.6385  144.0885  161.0542 C.ar    1  UNL1        0.0115
     13 C         140.7545  142.6029  161.2256 C.ar    1  UNL1        0.0036
     14 C         140.1165  141.9320  162.4058 C.ar    1  UNL1        0.0305
     15 C         138.2025  139.9192  165.9463 C.3     1  UNL1        0.0455
     16 C         138.3185  138.4336  166.1177 C.3     1  UNL1        0.0066
     17 C         139.0725  137.6189  165.1089 C.3     1  UNL1        0.0052
     18 C         139.7105  138.2897  163.9287 C.3     1  UNL1        0.0288
     19 C         143.4331  140.2667  160.9677 C.3     1  UNL1        0.0226
     20 C         144.4451  141.0936  161.7040 C.3     1  UNL1        0.0188
     21 C         144.4872  141.0677  163.2032 C.3     1  UNL1        0.0686
     22 N         143.5250  141.9025  163.9950 N.3     1  UNL1       -0.2982
     23 H         144.0465  142.7107  164.3344 H       1  UNL1        0.1232
     24 O         139.2248  139.8416  170.8515 O.2     1  UNL1       -0.2726
     25 C         139.9297  140.4311  169.6659 C.2     1  UNL1        0.2497
     26 C         139.8586  141.9072  169.4087 C.3     1  UNL1        0.1129
     27 C         140.5635  142.4967  168.2231 C.2     1  UNL1       -0.0198
     28 C         141.3394  141.6101  167.2947 C.2     1  UNL1       -0.0134
     29 C         141.4104  140.1340  167.5519 C.2     1  UNL1        0.0468
     30 N         140.7056  139.5445  168.7375 N.am    1  UNL1       -0.1836
     31 C         142.1863  139.2474  166.6235 C.3     1  UNL1        0.0443
     32 C         142.8912  139.8369  165.4379 C.3     1  UNL1        0.0221
     33 C         142.8201  141.3130  165.1807 C.3     1  UNL1        0.0588
     34 C         142.0442  142.1996  166.1091 C.3     1  UNL1        0.0427
@<TRIPOS>BOND
     1    24    25    2
     2    25    26    1
     3    26    27    1
     4    27    28    2
     5    28    29    1
     6    29    30    2
     7    29    31    1
     8    31    32    1
     9    32    33    1
    10    33    22    1
    11    22    21    1
    12    21    20    1
    13    20    19    1
    14    19     1    1
    15     1     2    1
    16     2     4    1
    17     4     5   ar
    18     5     6   ar
    19     6     7   ar
    20     7     8   ar
    21     8     9   ar
    22     9    10   ar
    23    10    11    1
    24    10    12   ar
    25    12    13   ar
    26    13    14   ar
    27     6    15    1
    28    15    16    1
    29    16    17    1
    30    17    18    1
    31    33    34    1
    32    30    25    1
    33    14     4   ar
    34    34    28    1
    35    18     5    1
    36    14     8   ar
    37    22    23    1
    38     2     3    1
@<TRIPOS>MOLECULE
*****
 34 38 0 0 0
SMALL
GASTEIGER

@<TRIPOS>ATOM
      1 C         142.0379  139.1441  164.8903 C.3     1  UNL1        0.0871
      2 N         142.8665  139.5648  163.7128 N.pl3   1  UNL1       -0.3328
      3 H         143.6760  139.0578  163.4742 H       1  UNL1        0.1468
      4 C         142.4617  140.7579  162.8987 C.ar    1  UNL1        0.0431
      5 C         142.9238  142.1286  163.2960 C.ar    1  UNL1        0.0045
      6 C         142.5189  143.3217  162.4820 C.ar    1  UNL1        0.0561
      7 N         141.6521  143.1441  161.2707 N.ar    1  UNL1       -0.2499
      8 C         141.1901  141.7735  160.8735 C.ar    1  UNL1        0.0829
      9 C         140.3233  141.5959  159.6622 C.ar    1  UNL1        0.0305
     10 C         139.8613  140.2252  159.2650 C.ar    1  UNL1        0.0592
     11 CL        138.9945  140.0477  158.0538 Cl      1  UNL1       -0.0822
     12 C         140.2661  139.0321  160.0790 C.ar    1  UNL1        0.0115
     13 C         141.1329  139.2097  161.2902 C.ar    1  UNL1        0.0036
     14 C         141.5949  140.5804  161.6875 C.ar    1  UNL1        0.0305
     15 C         142.9809  144.6924  162.8792 C.3     1  UNL1        0.0455
     16 C         143.8477  144.8699  164.0905 C.3     1  UNL1        0.0066
     17 C         144.2525  143.6768  164.9045 C.3     1  UNL1        0.0052
     18 C         143.7905  142.3062  164.5073 C.3     1  UNL1        0.0288
     19 C         141.4504  137.7648  164.9395 C.3     1  UNL1        0.0226
     20 C         140.1360  137.4852  164.2731 C.3     1  UNL1        0.0188
     21 C         138.8610  137.5884  165.0565 C.3     1  UNL1        0.0686
     22 N         138.4242  138.9135  165.6071 N.3     1  UNL1       -0.2982
     23 H         137.4736  138.7888  165.9552 H       1  UNL1        0.1232
     24 O         138.9562  146.2483  161.6488 O.2     1  UNL1       -0.2726
     25 C         138.9746  145.0376  162.5341 C.2     1  UNL1        0.2497
     26 C         139.6170  145.1080  163.8878 C.3     1  UNL1        0.1129
     27 C         139.6354  143.8972  164.7731 C.2     1  UNL1       -0.0198
     28 C         139.0114  142.6161  164.3048 C.2     1  UNL1       -0.0134
     29 C         138.3690  142.5457  162.9511 C.2     1  UNL1        0.0468
     30 N         138.3505  143.7564  162.0658 N.am    1  UNL1       -0.1836
     31 C         137.7450  141.2646  162.4828 C.3     1  UNL1        0.0443
     32 C         137.7634  140.0538  163.3681 C.3     1  UNL1        0.0221
     33 C         138.4058  140.1242  164.7217 C.3     1  UNL1        0.0588
     34 C         139.0298  141.4054  165.1901 C.3     1  UNL1        0.0427
@<TRIPOS>BOND
     1    24    25    2
     2    25    26    1
     3    26    27    1
     4    27    28    2
     5    28    29    1
     6    29    30    2
     7    29    31    1
     8    31    32    1
     9    32    33    1
    10    33    22    1
    11    22    21    1
    12    21    20    1
    13    20    19    1
    14    19     1    1
    15     1     2    1
    16     2     4    1
    17     4     5   ar
    18     5     6   ar
    19     6     7   ar
    20     7     8   ar
    21     8     9   ar
    22     9    10   ar
    23    10    11    1
    24    10    12   ar
    25    12    13   ar
    26    13    14   ar
    27     6    15    1
    28    15    16    1
    29    16    17    1
    30    17    18    1
    31    33    34    1
    32    30    25    1
    33    14     4   ar
    34    34    28    1
    35    18     5    1
    36    14     8   ar
    37    22    23    1
    38     2     3    1
@<TRIPOS>MOLECULE
*****
 34 38 0 0 0
SMALL
GASTEIGER

@<TRIPOS>ATOM
      1 C         138.5298  139.3411  162.0614 C.3     1  UNL1        0.0871
      2 N         138.2127  139.6244  163.4999 N.pl3   1  UNL1       -0.3328
      3 H         137.3746  139.2906  163.8942 H       1  UNL1        0.1468
      4 C         139.1725  140.4162  164.3377 C.ar    1  UNL1        0.0431
      5 C         138.8995  141.8627  164.6260 C.ar    1  UNL1        0.0045
      6 C         139.8593  142.6546  165.4638 C.ar    1  UNL1        0.0561
      7 N         141.0920  141.9999  166.0131 N.ar    1  UNL1       -0.2499
      8 C         141.3650  140.5534  165.7247 C.ar    1  UNL1        0.0829
      9 C         142.5978  139.8988  166.2741 C.ar    1  UNL1        0.0305
     10 C         142.8707  138.4523  165.9857 C.ar    1  UNL1        0.0592
     11 CL        144.1034  137.7977  166.5350 Cl      1  UNL1       -0.0822
     12 C         141.9109  137.6605  165.1480 C.ar    1  UNL1        0.0115
     13 C         140.6782  138.3151  164.5986 C.ar    1  UNL1        0.0036
     14 C         140.4052  139.7616  164.8870 C.ar    1  UNL1        0.0305
     15 C         139.5863  144.1010  165.7522 C.3     1  UNL1        0.0455
     16 C         138.3536  144.7557  165.2028 C.3     1  UNL1        0.0066
     17 C         137.3938  143.9638  164.3651 C.3     1  UNL1        0.0052
     18 C         137.6667  142.5174  164.0767 C.3     1  UNL1        0.0288
     19 C         139.4253  140.2682  161.2942 C.3     1  UNL1        0.0226
     20 C         138.8509  141.1567  160.2310 C.3     1  UNL1        0.0188
     21 C         138.4282  142.5554  160.5701 C.3     1  UNL1        0.0686
     22 N         139.3851  143.6949  160.3801 N.3     1  UNL1       -0.2982
     23 H         139.9103  143.4994  159.5279 H       1  UNL1        0.1232
     24 O         145.4325  144.2653  166.1120 O.2     1  UNL1       -0.2726
     25 C         144.4259  143.9457  165.0468 C.2     1  UNL1        0.2497
     26 C         144.4337  142.5984  164.3875 C.3     1  UNL1        0.1129
     27 C         143.4271  142.2787  163.3223 C.2     1  UNL1       -0.0198
     28 C         142.4127  143.3064  162.9164 C.2     1  UNL1       -0.0134
     29 C         142.4048  144.6538  163.5757 C.2     1  UNL1        0.0468
     30 N         143.4114  144.9734  164.6409 N.am    1  UNL1       -0.1836
     31 C         141.3904  145.6814  163.1698 C.3     1  UNL1        0.0443
     32 C         140.3838  145.3618  162.1046 C.3     1  UNL1        0.0221
     33 C         140.3916  144.0145  161.4453 C.3     1  UNL1        0.0588
     34 C         141.4061  142.9868  161.8512 C.3     1  UNL1        0.0427
@<TRIPOS>BOND
     1    24    25    2
     2    25    26    1
     3    26    27    1
     4    27    28    2
     5    28    29    1
     6    29    30    2
     7    29    31    1
     8    31    32    1
     9    32    33    1
    10    33    22    1
    11    22    21    1
    12    21    20    1
    13    20    19    1
    14    19     1    1
    15     1     2    1
    16     2     4    1
    17     4     5   ar
    18     5     6   ar
    19     6     7   ar
    20     7     8   ar
    21     8     9   ar
    22     9    10   ar
    23    10    11    1
    24    10    12   ar
    25    12    13   ar
    26    13    14   ar
    27     6    15    1
    28    15    16    1
    29    16    17    1
    30    17    18    1
    31    33    34    1
    32    30    25    1
    33    14     4   ar
    34    34    28    1
    35    18     5    1
    36    14     8   ar
    37    22    23    1
    38     2     3    1
@<TRIPOS>MOLECULE
*****
 34 38 0 0 0
SMALL
GASTEIGER

@<TRIPOS>ATOM
      1 C         138.6205  143.7844  163.6985 C.3     1  UNL1        0.0871
      2 N         139.8417  143.1048  164.2435 N.pl3   1  UNL1       -0.3328
      3 H         140.7278  143.5183  164.1288 H       1  UNL1        0.1468
      4 C         139.7129  141.7950  164.9632 C.ar    1  UNL1        0.0431
      5 C         139.3625  140.5516  164.2008 C.ar    1  UNL1        0.0045
      6 C         139.2336  139.2419  164.9206 C.ar    1  UNL1        0.0561
      7 N         139.4552  139.1756  166.4027 N.ar    1  UNL1       -0.2499
      8 C         139.8055  140.4190  167.1650 C.ar    1  UNL1        0.0829
      9 C         140.0271  140.3527  168.6471 C.ar    1  UNL1        0.0305
     10 C         140.3774  141.5961  169.4094 C.ar    1  UNL1        0.0592
     11 CL        140.5989  141.5298  170.8915 Cl      1  UNL1       -0.0822
     12 C         140.5063  142.9058  168.6897 C.ar    1  UNL1        0.0115
     13 C         140.2848  142.9722  167.2076 C.ar    1  UNL1        0.0036
     14 C         139.9344  141.7287  166.4453 C.ar    1  UNL1        0.0305
     15 C         138.8833  137.9985  164.1583 C.3     1  UNL1        0.0455
     16 C         138.6618  138.0648  162.6762 C.3     1  UNL1        0.0066
     17 C         138.7906  139.3745  161.9565 C.3     1  UNL1        0.0052
     18 C         139.1410  140.6179  162.7188 C.3     1  UNL1        0.0288
     19 C         138.7596  144.8520  162.6541 C.3     1  UNL1        0.0226
     20 C         140.0688  145.5623  162.4772 C.3     1  UNL1        0.0188
     21 C         140.9827  145.1811  161.3505 C.3     1  UNL1        0.0686
     22 N         142.4023  144.7897  161.6358 N.3     1  UNL1       -0.2982
     23 H         142.8071  144.4844  160.7508 H       1  UNL1        0.1232
     24 O         143.7256  137.9739  166.2773 O.2     1  UNL1       -0.2726
     25 C         143.4312  139.0484  165.2729 C.2     1  UNL1        0.2497
     26 C         142.9884  138.6796  163.8881 C.3     1  UNL1        0.1129
     27 C         142.6940  139.7541  162.8837 C.2     1  UNL1       -0.0198
     28 C         142.8425  141.1974  163.2641 C.2     1  UNL1       -0.0134
     29 C         143.2854  141.5663  164.6490 C.2     1  UNL1        0.0468
     30 N         143.5798  140.4918  165.6534 N.am    1  UNL1       -0.1836
     31 C         143.4339  143.0096  165.0294 C.3     1  UNL1        0.0443
     32 C         143.1395  144.0840  164.0250 C.3     1  UNL1        0.0221
     33 C         142.6967  143.7152  162.6402 C.3     1  UNL1        0.0588
     34 C         142.5481  142.2719  162.2597 C.3     1  UNL1        0.0427
@<TRIPOS>BOND
     1    24    25    2
     2    25    26    1
     3    26    27    1
     4    27    28    2
     5    28    29    1
     6    29    30    2
     7    29    31    1
     8    31    32    1
     9    32    33    1
    10    33    22    1
    11    22    21    1
    12    21    20    1
    13    20    19    1
    14    19     1    1
    15     1     2    1
    16     2     4    1
    17     4     5   ar
    18     5     6   ar
    19     6     7   ar
    20     7     8   ar
    21     8     9   ar
    22     9    10   ar
    23    10    11    1
    24    10    12   ar
    25    12    13   ar
    26    13    14   ar
    27     6    15    1
    28    15    16    1
    29    16    17    1
    30    17    18    1
    31    33    34    1
    32    30    25    1
    33    14     4   ar
    34    34    28    1
    35    18     5    1
    36    14     8   ar
    37    22    23    1
    38     2     3    1
