@<TRIPOS>MOLECULE
*****
 31 34 0 0 0
SMALL
GASTEIGER

@<TRIPOS>ATOM
      1 C         142.8319  143.2331  170.7011 C.3     1  UNL1        0.1383
      2 N         141.9372  142.3572  169.8749 N.ar    1  UNL1       -0.2455
      3 C         142.2493  142.1196  168.4272 C.ar    1  UNL1        0.2816
      4 O         143.4561  142.7578  167.8056 O.2     1  UNL1       -0.2652
      5 C         141.3547  141.2438  167.6010 C.ar    1  UNL1        0.1349
      6 C         140.1479  140.6056  168.2226 C.ar    1  UNL1        0.0966
      7 C         139.4551  139.7970  167.1661 C.ar    1  UNL1        0.1156
      8 C         140.2337  139.9355  165.8915 C.ar    1  UNL1        0.1240
      9 N         141.4077  140.8297  166.1603 N.ar    1  UNL1       -0.3063
     10 N         139.8357  140.8432  169.6703 N.ar    1  UNL1       -0.2770
     11 C         138.6289  140.2051  170.2920 C.3     1  UNL1        0.1351
     12 C         140.7304  141.7191  170.4965 C.ar    1  UNL1        0.3340
     13 O         140.4183  141.9567  171.9444 O.2     1  UNL1       -0.2462
     14 N         139.8974  139.2927  164.5786 N.pl3   1  UNL1       -0.2926
     15 C         140.7152  138.1397  164.0768 C.3     1  UNL1        0.0922
     16 C         140.3788  137.4969  162.7638 C.3     1  UNL1        0.0229
     17 C         139.2247  138.0071  161.9528 C.3     1  UNL1        0.0190
     18 C         138.4070  139.1601  162.4546 C.3     1  UNL1        0.0709
     19 N         137.2529  139.6703  161.6436 N.3     1  UNL1       -0.3208
     20 C         138.7434  139.8029  163.7675 C.3     1  UNL1        0.1075
     21 H         136.8132  140.4507  162.1315 H       1  UNL1        0.1189
     22 H         136.5713  138.9226  161.5143 H       1  UNL1        0.1189
     23 C         138.2034  138.9915  167.3516 C.1     1  UNL1        0.1047
     24 N         136.9518  138.1859  167.5370 N.1     1  UNL1       -0.1907
     25 C         142.4515  141.2379  165.1633 C.3     1  UNL1        0.1341
     26 C         142.4780  142.6426  164.6380 C.ar    1  UNL1        0.0004
     27 C         141.1942  143.3902  164.4305 C.ar    1  UNL1       -0.0024
     28 C         141.2208  144.7949  163.9052 C.ar    1  UNL1       -0.0003
     29 C         142.5312  145.4522  163.5873 C.ar    1  UNL1       -0.0000
     30 C         143.8149  144.7047  163.7948 C.ar    1  UNL1       -0.0003
     31 C         143.7884  143.2999  164.3201 C.ar    1  UNL1       -0.0024
@<TRIPOS>BOND
     1     1     2    1
     2     2     3   ar
     3     3     4    2
     4     3     5   ar
     5     5     6   ar
     6     6     7   ar
     7     7    23    1
     8    23    24    3
     9     7     8   ar
    10     8    14    1
    11    14    15    1
    12    15    16    1
    13    16    17    1
    14    17    18    1
    15    18    19    1
    16    18    20    1
    17     8     9   ar
    18     9    25    1
    19    25    26    1
    20    26    27   ar
    21    27    28   ar
    22    28    29   ar
    23    29    30   ar
    24    30    31   ar
    25     6    10   ar
    26    10    11    1
    27    10    12   ar
    28    12    13    2
    29    12     2   ar
    30     9     5   ar
    31    31    26   ar
    32    20    14    1
    33    19    21    1
    34    19    22    1
@<TRIPOS>MOLECULE
*****
 31 34 0 0 0
SMALL
GASTEIGER

@<TRIPOS>ATOM
      1 C         139.5053  143.1226  170.9372 C.3     1  UNL1        0.1383
      2 N         140.3167  142.2685  170.0086 N.ar    1  UNL1       -0.2455
      3 C         140.5234  142.6950  168.5855 C.ar    1  UNL1        0.2816
      4 O         139.9186  143.9756  168.0909 O.2     1  UNL1       -0.2652
      5 C         141.3347  141.8410  167.6568 C.ar    1  UNL1        0.1349
      6 C         141.9395  140.5605  168.1514 C.ar    1  UNL1        0.0966
      7 C         142.6854  139.9300  167.0129 C.ar    1  UNL1        0.1156
      8 C         142.5416  140.8209  165.8147 C.ar    1  UNL1        0.1240
      9 N         141.7069  142.0020  166.2127 N.ar    1  UNL1       -0.3063
     10 N         141.7329  140.1340  169.5745 N.ar    1  UNL1       -0.2770
     11 C         142.3376  138.8535  170.0692 C.3     1  UNL1        0.1351
     12 C         140.9214  140.9881  170.5031 C.ar    1  UNL1        0.3340
     13 O         140.7148  140.5615  171.9264 O.2     1  UNL1       -0.2462
     14 N         143.1293  140.5741  164.4569 N.pl3   1  UNL1       -0.2926
     15 C         142.6685  139.4023  163.6419 C.3     1  UNL1        0.0922
     16 C         143.2563  139.1555  162.2840 C.3     1  UNL1        0.0229
     17 C         144.3049  140.0806  161.7413 C.3     1  UNL1        0.0190
     18 C         144.7658  141.2525  162.5563 C.3     1  UNL1        0.0709
     19 N         145.8144  142.1776  162.0136 N.3     1  UNL1       -0.3208
     20 C         144.1780  141.4992  163.9141 C.3     1  UNL1        0.1075
     21 H         146.0051  142.9124  162.6949 H       1  UNL1        0.1189
     22 H         145.4815  142.5969  161.1455 H       1  UNL1        0.1189
     23 C         143.4421  138.6359  167.0637 C.1     1  UNL1        0.1047
     24 N         144.1989  137.3418  167.1144 N.1     1  UNL1       -0.1907
     25 C         141.3134  143.1435  165.3227 C.3     1  UNL1        0.1341
     26 C         140.0530  143.0636  164.5134 C.ar    1  UNL1        0.0004
     27 C         139.8758  141.9645  163.5080 C.ar    1  UNL1       -0.0024
     28 C         138.6154  141.8846  162.6986 C.ar    1  UNL1       -0.0003
     29 C         137.5323  142.9036  162.8946 C.ar    1  UNL1       -0.0000
     30 C         137.7095  144.0026  163.8999 C.ar    1  UNL1       -0.0003
     31 C         138.9698  144.0826  164.7094 C.ar    1  UNL1       -0.0024
@<TRIPOS>BOND
     1     1     2    1
     2     2     3   ar
     3     3     4    2
     4     3     5   ar
     5     5     6   ar
     6     6     7   ar
     7     7    23    1
     8    23    24    3
     9     7     8   ar
    10     8    14    1
    11    14    15    1
    12    15    16    1
    13    16    17    1
    14    17    18    1
    15    18    19    1
    16    18    20    1
    17     8     9   ar
    18     9    25    1
    19    25    26    1
    20    26    27   ar
    21    27    28   ar
    22    28    29   ar
    23    29    30   ar
    24    30    31   ar
    25     6    10   ar
    26    10    11    1
    27    10    12   ar
    28    12    13    2
    29    12     2   ar
    30     9     5   ar
    31    31    26   ar
    32    20    14    1
    33    19    21    1
    34    19    22    1
@<TRIPOS>MOLECULE
*****
 31 34 0 0 0
SMALL
GASTEIGER

@<TRIPOS>ATOM
      1 C         139.8055  143.2754  159.7473 C.3     1  UNL1        0.1383
      2 N         140.5502  143.2621  161.0494 N.ar    1  UNL1       -0.2455
      3 C         139.8898  142.7273  162.2855 C.ar    1  UNL1        0.2816
      4 O         138.4849  142.2059  162.2195 O.2     1  UNL1       -0.2652
      5 C         140.6345  142.7139  163.5875 C.ar    1  UNL1        0.1349
      6 C         142.0394  143.2353  163.6535 C.ar    1  UNL1        0.0966
      7 C         142.5199  143.0954  165.0675 C.ar    1  UNL1        0.1156
      8 C         141.4118  142.4876  165.8755 C.ar    1  UNL1        0.1240
      9 N         140.2466  142.2518  164.9608 N.ar    1  UNL1       -0.3063
     10 N         142.6997  143.7700  162.4174 N.ar    1  UNL1       -0.2770
     11 C         144.1047  144.2914  162.4832 C.3     1  UNL1        0.1351
     12 C         141.9550  143.7834  161.1153 C.ar    1  UNL1        0.3340
     13 O         142.6154  144.3182  159.8791 O.2     1  UNL1       -0.2462
     14 N         141.4605  142.1711  167.3409 N.pl3   1  UNL1       -0.2926
     15 C         142.3787  141.0980  167.8464 C.3     1  UNL1        0.0922
     16 C         142.4272  140.7816  169.3119 C.3     1  UNL1        0.0229
     17 C         141.5577  141.5381  170.2719 C.3     1  UNL1        0.0190
     18 C         140.6396  142.6112  169.7664 C.3     1  UNL1        0.0709
     19 N         139.7701  143.3678  170.7263 N.3     1  UNL1       -0.3208
     20 C         140.5910  142.9276  168.3009 C.3     1  UNL1        0.1075
     21 H         139.2151  144.0536  170.2143 H       1  UNL1        0.1189
     22 H         140.3556  143.8467  171.4105 H       1  UNL1        0.1189
     23 C         143.8711  143.4934  165.5831 C.1     1  UNL1        0.1047
     24 N         145.2223  143.8915  166.0986 N.1     1  UNL1       -0.1907
     25 C         138.9255  141.6581  165.3510 C.3     1  UNL1        0.1341
     26 C         138.7662  140.1686  165.4285 C.ar    1  UNL1        0.0004
     27 C         139.3379  139.2961  164.3505 C.ar    1  UNL1       -0.0024
     28 C         139.1785  137.8067  164.4280 C.ar    1  UNL1       -0.0003
     29 C         138.4475  137.1896  165.5834 C.ar    1  UNL1       -0.0000
     30 C         137.8759  138.0620  166.6613 C.ar    1  UNL1       -0.0003
     31 C         138.0351  139.5516  166.5839 C.ar    1  UNL1       -0.0024
@<TRIPOS>BOND
     1     1     2    1
     2     2     3   ar
     3     3     4    2
     4     3     5   ar
     5     5     6   ar
     6     6     7   ar
     7     7    23    1
     8    23    24    3
     9     7     8   ar
    10     8    14    1
    11    14    15    1
    12    15    16    1
    13    16    17    1
    14    17    18    1
    15    18    19    1
    16    18    20    1
    17     8     9   ar
    18     9    25    1
    19    25    26    1
    20    26    27   ar
    21    27    28   ar
    22    28    29   ar
    23    29    30   ar
    24    30    31   ar
    25     6    10   ar
    26    10    11    1
    27    10    12   ar
    28    12    13    2
    29    12     2   ar
    30     9     5   ar
    31    31    26   ar
    32    20    14    1
    33    19    21    1
    34    19    22    1
@<TRIPOS>MOLECULE
*****
 31 34 0 0 0
SMALL
GASTEIGER

@<TRIPOS>ATOM
      1 C         137.9735  139.8801  170.4007 C.3     1  UNL1        0.1383
      2 N         138.9898  140.2789  169.3719 N.ar    1  UNL1       -0.2455
      3 C         138.9524  139.6652  168.0037 C.ar    1  UNL1        0.2816
      4 O         137.8988  138.6528  167.6643 O.2     1  UNL1       -0.2652
      5 C         139.9685  140.0639  166.9749 C.ar    1  UNL1        0.1349
      6 C         141.0221  141.0763  167.3143 C.ar    1  UNL1        0.0966
      7 C         141.8851  141.2711  166.1030 C.ar    1  UNL1        0.1156
      8 C         141.3649  140.3792  165.0149 C.ar    1  UNL1        0.1240
      9 N         140.1804  139.6331  165.5538 N.ar    1  UNL1       -0.3063
     10 N         141.0594  141.6899  168.6825 N.ar    1  UNL1       -0.2770
     11 C         142.1130  142.7023  169.0220 C.3     1  UNL1        0.1351
     12 C         140.0432  141.2912  169.7113 C.ar    1  UNL1        0.3340
     13 O         140.0806  141.9048  171.0796 O.2     1  UNL1       -0.2462
     14 N         141.9300  140.2551  163.6310 N.pl3   1  UNL1       -0.2926
     15 C         141.5585  141.2553  162.5767 C.3     1  UNL1        0.0922
     16 C         142.1236  141.1311  161.1928 C.3     1  UNL1        0.0229
     17 C         143.0602  140.0068  160.8631 C.3     1  UNL1        0.0190
     18 C         143.4317  139.0066  161.9174 C.3     1  UNL1        0.0709
     19 N         144.3683  137.8823  161.5879 N.3     1  UNL1       -0.3208
     20 C         142.8666  139.1308  163.3014 C.3     1  UNL1        0.1075
     21 H         144.5089  137.3032  162.4157 H       1  UNL1        0.1189
     22 H         145.2640  138.2639  161.2838 H       1  UNL1        0.1189
     23 C         143.0617  142.1956  165.9981 C.1     1  UNL1        0.1047
     24 N         144.2382  143.1201  165.8933 N.1     1  UNL1       -0.1907
     25 C         139.3531  138.6319  164.8033 C.3     1  UNL1        0.1341
     26 C         138.9555  138.9020  163.3824 C.ar    1  UNL1        0.0004
     27 C         138.0830  140.0783  163.0583 C.ar    1  UNL1       -0.0024
     28 C         137.6854  140.3483  161.6374 C.ar    1  UNL1       -0.0003
     29 C         138.1603  139.4421  160.5405 C.ar    1  UNL1       -0.0000
     30 C         139.0328  138.2658  160.8645 C.ar    1  UNL1       -0.0003
     31 C         139.4305  137.9957  162.2854 C.ar    1  UNL1       -0.0024
@<TRIPOS>BOND
     1     1     2    1
     2     2     3   ar
     3     3     4    2
     4     3     5   ar
     5     5     6   ar
     6     6     7   ar
     7     7    23    1
     8    23    24    3
     9     7     8   ar
    10     8    14    1
    11    14    15    1
    12    15    16    1
    13    16    17    1
    14    17    18    1
    15    18    19    1
    16    18    20    1
    17     8     9   ar
    18     9    25    1
    19    25    26    1
    20    26    27   ar
    21    27    28   ar
    22    28    29   ar
    23    29    30   ar
    24    30    31   ar
    25     6    10   ar
    26    10    11    1
    27    10    12   ar
    28    12    13    2
    29    12     2   ar
    30     9     5   ar
    31    31    26   ar
    32    20    14    1
    33    19    21    1
    34    19    22    1
@<TRIPOS>MOLECULE
*****
 31 34 0 0 0
SMALL
GASTEIGER

@<TRIPOS>ATOM
      1 C         142.3210  139.2338  160.3655 C.3     1  UNL1        0.1383
      2 N         141.5969  139.2390  161.6792 N.ar    1  UNL1       -0.2455
      3 C         142.1009  140.0859  162.8099 C.ar    1  UNL1        0.2816
      4 O         143.3289  140.9276  162.6270 O.2     1  UNL1       -0.2652
      5 C         141.3768  140.0912  164.1236 C.ar    1  UNL1        0.1349
      6 C         140.1488  139.2495  164.3065 C.ar    1  UNL1        0.0966
      7 C         139.6484  139.4573  165.7052 C.ar    1  UNL1        0.1156
      8 C         140.5672  140.4274  166.3868 C.ar    1  UNL1        0.1240
      9 N         141.6354  140.8192  165.4093 N.ar    1  UNL1       -0.3063
     10 N         139.6448  138.4025  163.1757 N.ar    1  UNL1       -0.2770
     11 C         138.4167  137.5608  163.3585 C.3     1  UNL1        0.1351
     12 C         140.3689  138.3973  161.8620 C.ar    1  UNL1        0.3340
     13 O         139.8649  137.5503  160.7312 O.2     1  UNL1       -0.2462
     14 N         140.4402  140.9195  167.7981 N.pl3   1  UNL1       -0.2926
     15 C         140.4791  142.3911  168.0857 C.3     1  UNL1        0.0922
     16 C         140.3520  142.8831  169.4970 C.3     1  UNL1        0.0229
     17 C         140.1860  141.9035  170.6208 C.3     1  UNL1        0.0190
     18 C         140.1471  140.4318  170.3332 C.3     1  UNL1        0.0709
     19 N         139.9812  139.4521  171.4568 N.3     1  UNL1       -0.3208
     20 C         140.2742  139.9399  168.9218 C.3     1  UNL1        0.1075
     21 H         139.9762  138.5033  171.0827 H       1  UNL1        0.1189
     22 H         139.1000  139.6326  171.9379 H       1  UNL1        0.1189
     23 C         138.4412  138.8088  166.3152 C.1     1  UNL1        0.1047
     24 N         137.2340  138.1603  166.9253 N.1     1  UNL1       -0.1907
     25 C         142.7641  141.7718  165.6715 C.3     1  UNL1        0.1341
     26 C         142.7738  143.1214  165.0171 C.ar    1  UNL1        0.0004
     27 C         141.4853  143.7506  164.5765 C.ar    1  UNL1       -0.0024
     28 C         141.4950  145.1002  163.9220 C.ar    1  UNL1       -0.0003
     29 C         142.7932  145.8208  163.7081 C.ar    1  UNL1       -0.0000
     30 C         144.0816  145.1916  164.1486 C.ar    1  UNL1       -0.0003
     31 C         144.0719  143.8420  164.8031 C.ar    1  UNL1       -0.0024
@<TRIPOS>BOND
     1     1     2    1
     2     2     3   ar
     3     3     4    2
     4     3     5   ar
     5     5     6   ar
     6     6     7   ar
     7     7    23    1
     8    23    24    3
     9     7     8   ar
    10     8    14    1
    11    14    15    1
    12    15    16    1
    13    16    17    1
    14    17    18    1
    15    18    19    1
    16    18    20    1
    17     8     9   ar
    18     9    25    1
    19    25    26    1
    20    26    27   ar
    21    27    28   ar
    22    28    29   ar
    23    29    30   ar
    24    30    31   ar
    25     6    10   ar
    26    10    11    1
    27    10    12   ar
    28    12    13    2
    29    12     2   ar
    30     9     5   ar
    31    31    26   ar
    32    20    14    1
    33    19    21    1
    34    19    22    1
@<TRIPOS>MOLECULE
*****
 31 34 0 0 0
SMALL
GASTEIGER

@<TRIPOS>ATOM
      1 C         142.0282  143.0608  158.4309 C.3     1  UNL1        0.1383
      2 N         141.4429  143.1600  159.8085 N.ar    1  UNL1       -0.2455
      3 C         141.4973  141.9801  160.7331 C.ar    1  UNL1        0.2816
      4 O         142.1369  140.7011  160.2802 O.2     1  UNL1       -0.2652
      5 C         140.9121  142.0792  162.1106 C.ar    1  UNL1        0.1349
      6 C         140.2725  143.3582  162.5636 C.ar    1  UNL1        0.0966
      7 C         139.7833  143.1600  163.9677 C.ar    1  UNL1        0.1156
      8 C         140.1206  141.7586  164.3825 C.ar    1  UNL1        0.1240
      9 N         140.8182  141.0906  163.2348 N.ar    1  UNL1       -0.3063
     10 N         140.2181  144.5381  161.6390 N.ar    1  UNL1       -0.2770
     11 C         139.5785  145.8171  162.0918 C.3     1  UNL1        0.1351
     12 C         140.8034  144.4389  160.2614 C.ar    1  UNL1        0.3340
     13 O         140.7490  145.6188  159.3367 O.2     1  UNL1       -0.2462
     14 N         139.8141  141.1346  165.7117 N.pl3   1  UNL1       -0.2926
     15 C         140.5488  141.5855  166.9392 C.3     1  UNL1        0.0922
     16 C         140.2422  140.9615  168.2684 C.3     1  UNL1        0.0229
     17 C         139.2010  139.8865  168.3700 C.3     1  UNL1        0.0190
     18 C         138.4663  139.4356  167.1425 C.3     1  UNL1        0.0709
     19 N         137.4251  138.3606  167.2441 N.3     1  UNL1       -0.3208
     20 C         138.7729  140.0596  165.8133 C.3     1  UNL1        0.1075
     21 H         137.0307  138.1810  166.3207 H       1  UNL1        0.1189
     22 H         136.6848  138.6631  167.8771 H       1  UNL1        0.1189
     23 C         139.0803  144.1836  164.8091 C.1     1  UNL1        0.1047
     24 N         138.3773  145.2072  165.6506 N.1     1  UNL1       -0.1907
     25 C         141.3317  139.6814  163.2148 C.3     1  UNL1        0.1341
     26 C         142.5151  139.3024  164.0551 C.ar    1  UNL1        0.0004
     27 C         142.3145  138.5506  165.3375 C.ar    1  UNL1       -0.0024
     28 C         143.4978  138.1717  166.1778 C.ar    1  UNL1       -0.0003
     29 C         144.8819  138.5445  165.7356 C.ar    1  UNL1       -0.0000
     30 C         145.0825  139.2963  164.4533 C.ar    1  UNL1       -0.0003
     31 C         143.8992  139.6753  163.6130 C.ar    1  UNL1       -0.0024
@<TRIPOS>BOND
     1     1     2    1
     2     2     3   ar
     3     3     4    2
     4     3     5   ar
     5     5     6   ar
     6     6     7   ar
     7     7    23    1
     8    23    24    3
     9     7     8   ar
    10     8    14    1
    11    14    15    1
    12    15    16    1
    13    16    17    1
    14    17    18    1
    15    18    19    1
    16    18    20    1
    17     8     9   ar
    18     9    25    1
    19    25    26    1
    20    26    27   ar
    21    27    28   ar
    22    28    29   ar
    23    29    30   ar
    24    30    31   ar
    25     6    10   ar
    26    10    11    1
    27    10    12   ar
    28    12    13    2
    29    12     2   ar
    30     9     5   ar
    31    31    26   ar
    32    20    14    1
    33    19    21    1
    34    19    22    1
@<TRIPOS>MOLECULE
*****
 31 34 0 0 0
SMALL
GASTEIGER

@<TRIPOS>ATOM
      1 C         139.7165  143.0558  170.7442 C.3     1  UNL1        0.1383
      2 N         140.4963  142.1251  169.8634 N.ar    1  UNL1       -0.2455
      3 C         140.5318  142.3494  168.3807 C.ar    1  UNL1        0.2816
      4 O         139.7876  143.5044  167.7789 O.2     1  UNL1       -0.2652
      5 C         141.3115  141.4187  167.4999 C.ar    1  UNL1        0.1349
      6 C         142.0557  140.2638  168.1017 C.ar    1  UNL1        0.0966
      7 C         142.7333  139.5190  166.9899 C.ar    1  UNL1        0.1156
      8 C         142.4079  140.2137  165.7009 C.ar    1  UNL1        0.1240
      9 N         141.5292  141.3878  166.0161 N.ar    1  UNL1       -0.3063
     10 N         142.0202  140.0395  169.5844 N.ar    1  UNL1       -0.2770
     11 C         142.7644  138.8845  170.1863 C.3     1  UNL1        0.1351
     12 C         141.2404  140.9702  170.4652 C.ar    1  UNL1        0.3340
     13 O         141.2049  140.7459  171.9480 O.2     1  UNL1       -0.2462
     14 N         142.8786  139.8059  164.3363 N.pl3   1  UNL1       -0.2926
     15 C         144.0854  140.4607  163.7324 C.3     1  UNL1        0.0922
     16 C         144.5560  140.0529  162.3678 C.3     1  UNL1        0.0229
     17 C         143.8199  138.9902  161.6070 C.3     1  UNL1        0.0190
     18 C         142.6130  138.3353  162.2109 C.3     1  UNL1        0.0709
     19 N         141.8768  137.2726  161.4502 N.3     1  UNL1       -0.3208
     20 C         142.1424  138.7432  163.5755 C.3     1  UNL1        0.1075
     21 H         141.0890  136.9403  162.0065 H       1  UNL1        0.1189
     22 H         142.5076  136.4951  161.2556 H       1  UNL1        0.1189
     23 C         143.5866  138.2946  167.1406 C.1     1  UNL1        0.1047
     24 N         144.4398  137.0701  167.2914 N.1     1  UNL1       -0.1907
     25 C         140.9669  142.3602  165.0219 C.3     1  UNL1        0.1341
     26 C         141.8774  143.0493  164.0493 C.ar    1  UNL1        0.0004
     27 C         142.9782  143.9360  164.5514 C.ar    1  UNL1       -0.0024
     28 C         143.8887  144.6251  163.5788 C.ar    1  UNL1       -0.0003
     29 C         143.6986  144.4275  162.1040 C.ar    1  UNL1       -0.0000
     30 C         142.5978  143.5409  161.6020 C.ar    1  UNL1       -0.0003
     31 C         141.6872  142.8517  162.5745 C.ar    1  UNL1       -0.0024
@<TRIPOS>BOND
     1     1     2    1
     2     2     3   ar
     3     3     4    2
     4     3     5   ar
     5     5     6   ar
     6     6     7   ar
     7     7    23    1
     8    23    24    3
     9     7     8   ar
    10     8    14    1
    11    14    15    1
    12    15    16    1
    13    16    17    1
    14    17    18    1
    15    18    19    1
    16    18    20    1
    17     8     9   ar
    18     9    25    1
    19    25    26    1
    20    26    27   ar
    21    27    28   ar
    22    28    29   ar
    23    29    30   ar
    24    30    31   ar
    25     6    10   ar
    26    10    11    1
    27    10    12   ar
    28    12    13    2
    29    12     2   ar
    30     9     5   ar
    31    31    26   ar
    32    20    14    1
    33    19    21    1
    34    19    22    1
@<TRIPOS>MOLECULE
*****
 31 34 0 0 0
SMALL
GASTEIGER

@<TRIPOS>ATOM
      1 C         142.0976  138.1127  157.5919 C.3     1  UNL1        0.1383
      2 N         142.1762  139.2221  158.5985 N.ar    1  UNL1       -0.2455
      3 C         141.0754  139.4045  159.6009 C.ar    1  UNL1        0.2816
      4 O         139.8961  138.4775  159.5969 O.2     1  UNL1       -0.2652
      5 C         141.1539  140.5139  160.6075 C.ar    1  UNL1        0.1349
      6 C         142.3332  141.4409  160.6116 C.ar    1  UNL1        0.0966
      7 C         142.1363  142.4366  161.7159 C.ar    1  UNL1        0.1156
      8 C         140.8353  142.1250  162.3944 C.ar    1  UNL1        0.1240
      9 N         140.2281  140.9367  161.7094 N.ar    1  UNL1       -0.3063
     10 N         143.4340  141.2585  159.6091 N.ar    1  UNL1       -0.2770
     11 C         144.6133  142.1854  159.6131 C.3     1  UNL1        0.1351
     12 C         143.3554  140.1490  158.6025 C.ar    1  UNL1        0.3340
     13 O         144.4562  139.9666  157.6000 O.2     1  UNL1       -0.2462
     14 N         140.2451  142.8708  163.5544 N.pl3   1  UNL1       -0.2926
     15 C         139.2367  143.9550  163.3141 C.3     1  UNL1        0.0922
     16 C         138.6465  144.7008  164.4741 C.3     1  UNL1        0.0229
     17 C         139.0646  144.3624  165.8743 C.3     1  UNL1        0.0190
     18 C         140.0730  143.2782  166.1146 C.3     1  UNL1        0.0709
     19 N         140.4912  142.9398  167.5148 N.3     1  UNL1       -0.3208
     20 C         140.6632  142.5325  164.9546 C.3     1  UNL1        0.1075
     21 H         141.1777  142.1858  167.4917 H       1  UNL1        0.1189
     22 H         139.6761  142.6412  168.0503 H       1  UNL1        0.1189
     23 C         143.0755  143.5487  162.0782 C.1     1  UNL1        0.1047
     24 N         144.0147  144.6608  162.4405 N.1     1  UNL1       -0.1907
     25 C         138.9242  140.2856  162.0640 C.3     1  UNL1        0.1341
     26 C         138.7821  139.5502  163.3636 C.ar    1  UNL1        0.0004
     27 C         139.2633  138.1342  163.4805 C.ar    1  UNL1       -0.0024
     28 C         139.1212  137.3987  164.7801 C.ar    1  UNL1       -0.0003
     29 C         138.4980  138.0792  165.9628 C.ar    1  UNL1       -0.0000
     30 C         138.0169  139.4951  165.8458 C.ar    1  UNL1       -0.0003
     31 C         138.1590  140.2306  164.5463 C.ar    1  UNL1       -0.0024
@<TRIPOS>BOND
     1     1     2    1
     2     2     3   ar
     3     3     4    2
     4     3     5   ar
     5     5     6   ar
     6     6     7   ar
     7     7    23    1
     8    23    24    3
     9     7     8   ar
    10     8    14    1
    11    14    15    1
    12    15    16    1
    13    16    17    1
    14    17    18    1
    15    18    19    1
    16    18    20    1
    17     8     9   ar
    18     9    25    1
    19    25    26    1
    20    26    27   ar
    21    27    28   ar
    22    28    29   ar
    23    29    30   ar
    24    30    31   ar
    25     6    10   ar
    26    10    11    1
    27    10    12   ar
    28    12    13    2
    29    12     2   ar
    30     9     5   ar
    31    31    26   ar
    32    20    14    1
    33    19    21    1
    34    19    22    1
@<TRIPOS>MOLECULE
*****
 31 34 0 0 0
SMALL
GASTEIGER

@<TRIPOS>ATOM
      1 C         136.8420  138.2473  167.9049 C.3     1  UNL1        0.1383
      2 N         138.1149  139.0280  167.7630 N.ar    1  UNL1       -0.2455
      3 C         138.7478  139.1918  166.4130 C.ar    1  UNL1        0.2816
      4 O         138.1077  138.5748  165.2048 O.2     1  UNL1       -0.2652
      5 C         140.0207  139.9725  166.2711 C.ar    1  UNL1        0.1349
      6 C         140.6608  140.5895  167.4793 C.ar    1  UNL1        0.0966
      7 C         141.9050  141.2988  167.0334 C.ar    1  UNL1        0.1156
      8 C         142.0339  141.1202  165.5497 C.ar    1  UNL1        0.1240
      9 N         140.8694  140.3005  165.0785 N.ar    1  UNL1       -0.3063
     10 N         140.0279  140.4257  168.8293 N.ar    1  UNL1       -0.2770
     11 C         140.6679  141.0427  170.0376 C.3     1  UNL1        0.1351
     12 C         138.7549  139.6450  168.9712 C.ar    1  UNL1        0.3340
     13 O         138.1220  139.4812  170.3213 O.2     1  UNL1       -0.2462
     14 N         143.1342  141.6655  164.6883 N.pl3   1  UNL1       -0.2926
     15 C         144.3965  140.8782  164.4962 C.3     1  UNL1        0.0922
     16 C         145.4967  141.4236  163.6348 C.3     1  UNL1        0.0229
     17 C         145.3348  142.7562  162.9655 C.3     1  UNL1        0.0190
     18 C         144.0725  143.5434  163.1576 C.3     1  UNL1        0.0709
     19 N         143.9105  144.8760  162.4883 N.3     1  UNL1       -0.3208
     20 C         142.9722  142.9980  164.0190 C.3     1  UNL1        0.1075
     21 H         142.9993  145.2675  162.7265 H       1  UNL1        0.1189
     22 H         143.9764  144.7589  161.4772 H       1  UNL1        0.1189
     23 C         142.8537  142.0541  167.9163 C.1     1  UNL1        0.1047
     24 N         143.8025  142.8093  168.7992 N.1     1  UNL1       -0.1907
     25 C         140.6007  139.8823  163.6633 C.3     1  UNL1        0.1341
     26 C         141.7436  139.5640  162.7455 C.ar    1  UNL1        0.0004
     27 C         142.0655  140.4807  161.6027 C.ar    1  UNL1       -0.0024
     28 C         143.2084  140.1625  160.6849 C.ar    1  UNL1       -0.0003
     29 C         144.0295  138.9274  160.9099 C.ar    1  UNL1       -0.0000
     30 C         143.7077  138.0108  162.0526 C.ar    1  UNL1       -0.0003
     31 C         142.5647  138.3290  162.9705 C.ar    1  UNL1       -0.0024
@<TRIPOS>BOND
     1     1     2    1
     2     2     3   ar
     3     3     4    2
     4     3     5   ar
     5     5     6   ar
     6     6     7   ar
     7     7    23    1
     8    23    24    3
     9     7     8   ar
    10     8    14    1
    11    14    15    1
    12    15    16    1
    13    16    17    1
    14    17    18    1
    15    18    19    1
    16    18    20    1
    17     8     9   ar
    18     9    25    1
    19    25    26    1
    20    26    27   ar
    21    27    28   ar
    22    28    29   ar
    23    29    30   ar
    24    30    31   ar
    25     6    10   ar
    26    10    11    1
    27    10    12   ar
    28    12    13    2
    29    12     2   ar
    30     9     5   ar
    31    31    26   ar
    32    20    14    1
    33    19    21    1
    34    19    22    1
