@<TRIPOS>MOLECULE
*****
 32 36 0 0 0
SMALL
GASTEIGER

@<TRIPOS>ATOM
      1 C         140.7388  138.7424  161.2598 C.ar    1  UNL1        0.0019
      2 C         142.2171  138.9148  161.0729 C.ar    1  UNL1        0.0002
      3 C         142.8099  138.8643  159.6960 C.ar    1  UNL1        0.0042
      4 C         141.9245  138.6412  158.5059 C.ar    1  UNL1        0.0497
      5 C         140.4463  138.4688  158.6928 C.ar    1  UNL1       -0.0161
      6 C         139.8534  138.5194  160.0697 C.ar    1  UNL1       -0.0040
      7 C         139.5608  138.2458  157.5027 C.3     1  UNL1        0.0480
      8 C         140.1537  138.1952  156.1258 C.3     1  UNL1        0.0984
      9 N         141.6320  138.3677  155.9389 N.am    1  UNL1       -0.2743
     10 C         142.5174  138.5907  157.1290 C.2     1  UNL1        0.2488
     11 O         143.9957  138.7631  156.9422 O.2     1  UNL1       -0.2699
     12 C         138.9601  138.8940  165.3906 C.ar    1  UNL1        0.0558
     13 C         139.7698  137.7049  164.9658 C.ar    1  UNL1        0.0047
     14 C         140.3627  137.6544  163.5889 C.ar    1  UNL1        0.0024
     15 C         140.1459  138.7929  162.6367 C.ar    1  UNL1        0.0275
     16 C         139.3362  139.9820  163.0615 C.ar    1  UNL1        0.1402
     17 F         139.1194  141.1206  162.1093 F       1  UNL1       -0.2042
     18 C         138.7433  140.0326  164.4384 C.ar    1  UNL1        0.0341
     19 O         137.1040  138.1937  167.0682 O.2     1  UNL1       -0.2699
     20 C         138.3672  138.9445  166.7675 C.2     1  UNL1        0.2491
     21 N         139.0376  139.7459  167.8437 N.am    1  UNL1       -0.2761
     22 C         138.5647  139.8898  169.2599 C.3     1  UNL1        0.0938
     23 C         139.5334  140.7769  169.9842 C.3     1  UNL1        0.0233
     24 C         140.6051  141.1813  169.0157 C.3     1  UNL1        0.0233
     25 C         140.2987  140.5441  167.6928 C.3     1  UNL1        0.0938
     26 C         142.2249  138.3171  154.5620 C.3     1  UNL1        0.1110
     27 C         142.3866  136.9998  153.8629 C.3     1  UNL1        0.0939
     28 N         142.5989  135.7480  154.6617 N.3     1  UNL1       -0.2712
     29 C         141.6188  134.6228  154.8144 C.3     1  UNL1        0.0722
     30 C         142.2428  133.5810  155.6950 C.3     1  UNL1        0.0188
     31 C         143.6085  134.0623  156.0864 C.3     1  UNL1        0.0188
     32 C         143.8286  135.4016  155.4477 C.3     1  UNL1        0.0722
@<TRIPOS>BOND
     1    19    20    2
     2    20    12    1
     3    12    13   ar
     4    13    14   ar
     5    14    15   ar
     6    15     1    1
     7     1     2   ar
     8     2     3   ar
     9     3     4   ar
    10     4     5   ar
    11     5     6   ar
    12     5     7    1
    13     7     8    1
    14     8     9    1
    15     9    26    1
    16    26    27    1
    17    27    28    1
    18    28    29    1
    19    29    30    1
    20    30    31    1
    21    31    32    1
    22     9    10   am
    23    10    11    2
    24    15    16   ar
    25    16    17    1
    26    16    18   ar
    27    20    21   am
    28    21    22    1
    29    22    23    1
    30    23    24    1
    31    24    25    1
    32    18    12   ar
    33    25    21    1
    34     6     1   ar
    35    32    28    1
    36    10     4    1
@<TRIPOS>MOLECULE
*****
 32 36 0 0 0
SMALL
GASTEIGER

@<TRIPOS>ATOM
      1 C         142.6218  140.1287  162.3979 C.ar    1  UNL1        0.0019
      2 C         143.8876  140.0900  161.5940 C.ar    1  UNL1        0.0002
      3 C         143.8583  139.6156  160.1713 C.ar    1  UNL1        0.0042
      4 C         142.5632  139.1799  159.5525 C.ar    1  UNL1        0.0497
      5 C         141.2974  139.2185  160.3564 C.ar    1  UNL1       -0.0161
      6 C         141.3267  139.6929  161.7791 C.ar    1  UNL1       -0.0040
      7 C         140.0024  138.7828  159.7376 C.3     1  UNL1        0.0480
      8 C         139.9731  138.3084  158.3149 C.3     1  UNL1        0.0984
      9 N         141.2389  138.2697  157.5110 N.am    1  UNL1       -0.2743
     10 C         142.5340  138.7054  158.1298 C.2     1  UNL1        0.2488
     11 O         143.7998  138.6668  157.3259 O.2     1  UNL1       -0.2699
     12 C         142.7095  141.5520  166.6660 C.ar    1  UNL1        0.0558
     13 C         142.5268  142.5378  165.5502 C.ar    1  UNL1        0.0047
     14 C         142.4976  142.0633  164.1276 C.ar    1  UNL1        0.0024
     15 C         142.6510  140.6031  163.8206 C.ar    1  UNL1        0.0275
     16 C         142.8337  139.6173  164.9363 C.ar    1  UNL1        0.1402
     17 F         142.9871  138.1571  164.6294 F       1  UNL1       -0.2042
     18 C         142.8629  140.0918  166.3591 C.ar    1  UNL1        0.0341
     19 O         143.9397  142.7579  168.6108 O.2     1  UNL1       -0.2699
     20 C         142.7387  142.0265  168.0887 C.2     1  UNL1        0.2491
     21 N         141.5670  141.7695  168.9892 N.am    1  UNL1       -0.2761
     22 C         141.4529  142.1817  170.4269 C.3     1  UNL1        0.0938
     23 C         140.1190  141.7221  170.9364 C.3     1  UNL1        0.0233
     24 C         139.4087  141.0259  169.8135 C.3     1  UNL1        0.0233
     25 C         140.3036  141.0551  168.6101 C.3     1  UNL1        0.0938
     26 C         141.2096  137.7953  156.0883 C.3     1  UNL1        0.1110
     27 C         140.7832  136.3918  155.7743 C.3     1  UNL1        0.0939
     28 N         141.7570  135.2608  155.9245 N.3     1  UNL1       -0.2712
     29 C         141.5629  133.8586  155.4282 C.3     1  UNL1        0.0722
     30 C         142.7817  133.0645  155.7943 C.3     1  UNL1        0.0188
     31 C         143.7290  133.9759  156.5168 C.3     1  UNL1        0.0188
     32 C         143.0957  135.3333  156.5973 C.3     1  UNL1        0.0722
@<TRIPOS>BOND
     1    19    20    2
     2    20    12    1
     3    12    13   ar
     4    13    14   ar
     5    14    15   ar
     6    15     1    1
     7     1     2   ar
     8     2     3   ar
     9     3     4   ar
    10     4     5   ar
    11     5     6   ar
    12     5     7    1
    13     7     8    1
    14     8     9    1
    15     9    26    1
    16    26    27    1
    17    27    28    1
    18    28    29    1
    19    29    30    1
    20    30    31    1
    21    31    32    1
    22     9    10   am
    23    10    11    2
    24    15    16   ar
    25    16    17    1
    26    16    18   ar
    27    20    21   am
    28    21    22    1
    29    22    23    1
    30    23    24    1
    31    24    25    1
    32    18    12   ar
    33    25    21    1
    34     6     1   ar
    35    32    28    1
    36    10     4    1
@<TRIPOS>MOLECULE
*****
 32 36 0 0 0
SMALL
GASTEIGER

@<TRIPOS>ATOM
      1 C         140.3694  138.6184  162.0312 C.ar    1  UNL1        0.0019
      2 C         139.3217  137.7118  162.6060 C.ar    1  UNL1        0.0002
      3 C         138.9165  137.8506  164.0435 C.ar    1  UNL1        0.0042
      4 C         139.5591  138.8961  164.9062 C.ar    1  UNL1        0.0497
      5 C         140.6067  139.8026  164.3314 C.ar    1  UNL1       -0.0161
      6 C         141.0119  139.6638  162.8939 C.ar    1  UNL1       -0.0040
      7 C         141.2493  140.8480  165.1941 C.3     1  UNL1        0.0480
      8 C         140.8441  140.9869  166.6316 C.3     1  UNL1        0.0984
      9 N         139.7964  140.0803  167.2065 N.am    1  UNL1       -0.2743
     10 C         139.1539  139.0349  166.3438 C.2     1  UNL1        0.2488
     11 O         138.1062  138.1283  166.9186 O.2     1  UNL1       -0.2699
     12 C         141.5849  138.2019  157.7184 C.ar    1  UNL1        0.0558
     13 C         140.1699  138.5566  158.0680 C.ar    1  UNL1        0.0047
     14 C         139.7648  138.6954  159.5055 C.ar    1  UNL1        0.0024
     15 C         140.7746  138.4796  160.5936 C.ar    1  UNL1        0.0275
     16 C         142.1895  138.1249  160.2440 C.ar    1  UNL1        0.1402
     17 F         143.1993  137.9091  161.3320 F       1  UNL1       -0.2042
     18 C         142.5947  137.9861  158.8064 C.ar    1  UNL1        0.0341
     19 O         142.2057  139.2871  155.4409 O.2     1  UNL1       -0.2699
     20 C         141.9900  138.0632  156.2809 C.2     1  UNL1        0.2491
     21 N         142.1795  136.7005  155.6833 N.am    1  UNL1       -0.2761
     22 C         142.5809  136.4063  154.2683 C.3     1  UNL1        0.0938
     23 C         142.6503  134.9167  154.1063 C.3     1  UNL1        0.0233
     24 C         142.2919  134.2902  155.4212 C.3     1  UNL1        0.0233
     25 C         142.0009  135.3926  156.3959 C.3     1  UNL1        0.0938
     26 C         139.3912  140.2191  168.6441 C.3     1  UNL1        0.1110
     27 C         140.4101  140.0431  169.7308 C.3     1  UNL1        0.0939
     28 N         141.5108  141.0485  169.8969 N.3     1  UNL1       -0.2712
     29 C         142.9715  140.8039  169.6589 C.3     1  UNL1        0.0722
     30 C         143.7077  142.0792  169.9450 C.3     1  UNL1        0.0188
     31 C         142.7018  143.1120  170.3597 C.3     1  UNL1        0.0188
     32 C         141.3442  142.4749  170.3300 C.3     1  UNL1        0.0722
@<TRIPOS>BOND
     1    19    20    2
     2    20    12    1
     3    12    13   ar
     4    13    14   ar
     5    14    15   ar
     6    15     1    1
     7     1     2   ar
     8     2     3   ar
     9     3     4   ar
    10     4     5   ar
    11     5     6   ar
    12     5     7    1
    13     7     8    1
    14     8     9    1
    15     9    26    1
    16    26    27    1
    17    27    28    1
    18    28    29    1
    19    29    30    1
    20    30    31    1
    21    31    32    1
    22     9    10   am
    23    10    11    2
    24    15    16   ar
    25    16    17    1
    26    16    18   ar
    27    20    21   am
    28    21    22    1
    29    22    23    1
    30    23    24    1
    31    24    25    1
    32    18    12   ar
    33    25    21    1
    34     6     1   ar
    35    32    28    1
    36    10     4    1
@<TRIPOS>MOLECULE
*****
 32 36 0 0 0
SMALL
GASTEIGER

@<TRIPOS>ATOM
      1 C         139.8984  139.2603  162.7943 C.ar    1  UNL1        0.0019
      2 C         138.7151  139.5213  161.9103 C.ar    1  UNL1        0.0002
      3 C         138.8085  139.2615  160.4360 C.ar    1  UNL1        0.0042
      4 C         140.0853  138.7407  159.8457 C.ar    1  UNL1        0.0497
      5 C         141.2687  138.4796  160.7296 C.ar    1  UNL1       -0.0161
      6 C         141.1752  138.7394  162.2040 C.ar    1  UNL1       -0.0040
      7 C         142.5455  137.9588  160.1393 C.3     1  UNL1        0.0480
      8 C         142.6389  137.6989  158.6650 C.3     1  UNL1        0.0984
      9 N         141.4555  137.9600  157.7809 N.am    1  UNL1       -0.2743
     10 C         140.1787  138.4808  158.3712 C.2     1  UNL1        0.2488
     11 O         138.9954  138.7419  157.4872 O.2     1  UNL1       -0.2699
     12 C         139.6183  140.0398  167.2175 C.ar    1  UNL1        0.0558
     13 C         140.2604  141.0527  166.3166 C.ar    1  UNL1        0.0047
     14 C         140.3538  140.7929  164.8422 C.ar    1  UNL1        0.0024
     15 C         139.8050  139.5201  164.2687 C.ar    1  UNL1        0.0275
     16 C         139.1629  138.5072  165.1696 C.ar    1  UNL1        0.1402
     17 F         138.6141  137.2344  164.5961 F       1  UNL1       -0.2042
     18 C         139.0695  138.7670  166.6440 C.ar    1  UNL1        0.0341
     19 O         138.3307  139.8217  169.4635 O.2     1  UNL1       -0.2699
     20 C         139.5249  140.2996  168.6918 C.2     1  UNL1        0.2491
     21 N         140.6257  141.0374  169.3945 N.am    1  UNL1       -0.2761
     22 C         140.6714  141.3692  170.8566 C.3     1  UNL1        0.0938
     23 C         141.9481  142.1098  171.1242 C.3     1  UNL1        0.0233
     24 C         142.6915  142.2357  169.8275 C.3     1  UNL1        0.0233
     25 C         141.8742  141.5729  168.7585 C.3     1  UNL1        0.0938
     26 C         141.5489  137.7002  156.3065 C.3     1  UNL1        0.1110
     27 C         141.0338  136.4112  155.7380 C.3     1  UNL1        0.0939
     28 N         141.9030  135.1886  155.7435 N.3     1  UNL1       -0.2712
     29 C         141.4792  133.8039  155.3522 C.3     1  UNL1        0.0722
     30 C         142.6628  132.8956  155.5081 C.3     1  UNL1        0.0188
     31 C         143.8179  133.7190  155.9957 C.3     1  UNL1        0.0188
     32 C         143.3483  135.1361  156.1412 C.3     1  UNL1        0.0722
@<TRIPOS>BOND
     1    19    20    2
     2    20    12    1
     3    12    13   ar
     4    13    14   ar
     5    14    15   ar
     6    15     1    1
     7     1     2   ar
     8     2     3   ar
     9     3     4   ar
    10     4     5   ar
    11     5     6   ar
    12     5     7    1
    13     7     8    1
    14     8     9    1
    15     9    26    1
    16    26    27    1
    17    27    28    1
    18    28    29    1
    19    29    30    1
    20    30    31    1
    21    31    32    1
    22     9    10   am
    23    10    11    2
    24    15    16   ar
    25    16    17    1
    26    16    18   ar
    27    20    21   am
    28    21    22    1
    29    22    23    1
    30    23    24    1
    31    24    25    1
    32    18    12   ar
    33    25    21    1
    34     6     1   ar
    35    32    28    1
    36    10     4    1
@<TRIPOS>MOLECULE
*****
 32 36 0 0 0
SMALL
GASTEIGER

@<TRIPOS>ATOM
      1 C         142.0697  140.1614  162.1671 C.ar    1  UNL1        0.0019
      2 C         141.8980  138.9618  161.2831 C.ar    1  UNL1        0.0002
      3 C         142.5176  138.9419  159.9173 C.ar    1  UNL1        0.0042
      4 C         143.3090  140.1215  159.4354 C.ar    1  UNL1        0.0497
      5 C         143.4807  141.3211  160.3194 C.ar    1  UNL1       -0.0161
      6 C         142.8610  141.3411  161.6852 C.ar    1  UNL1       -0.0040
      7 C         144.2721  142.5007  159.8375 C.3     1  UNL1        0.0480
      8 C         144.8918  142.4807  158.4717 C.3     1  UNL1        0.0984
      9 N         144.7201  141.2811  157.5876 N.am    1  UNL1       -0.2743
     10 C         143.9287  140.1015  158.0695 C.2     1  UNL1        0.2488
     11 O         143.7570  138.9019  157.1856 O.2     1  UNL1       -0.2699
     12 C         140.2106  140.2214  166.2648 C.ar    1  UNL1        0.0558
     13 C         141.4004  139.3491  165.9936 C.ar    1  UNL1        0.0047
     14 C         142.0201  139.3291  164.6278 C.ar    1  UNL1        0.0024
     15 C         141.4500  140.1814  163.5330 C.ar    1  UNL1        0.0275
     16 C         140.2602  141.0538  163.8041 C.ar    1  UNL1        0.1402
     17 F         139.6901  141.9061  162.7094 F       1  UNL1       -0.2042
     18 C         139.6405  141.0738  165.1700 C.ar    1  UNL1        0.0341
     19 O         138.6237  139.1672  168.0312 O.2     1  UNL1       -0.2699
     20 C         139.5910  140.2414  167.6306 C.2     1  UNL1        0.2491
     21 N         139.9387  141.3356  168.5960 N.am    1  UNL1       -0.2761
     22 C         139.4018  141.4863  169.9884 C.3     1  UNL1        0.0938
     23 C         140.0156  142.7150  170.5914 C.3     1  UNL1        0.0233
     24 C         140.9318  143.3237  169.5715 C.3     1  UNL1        0.0233
     25 C         140.8843  142.4712  168.3383 C.3     1  UNL1        0.0938
     26 C         145.3398  141.2611  156.2218 C.3     1  UNL1        0.1110
     27 C         145.9939  142.4961  155.6769 C.3     1  UNL1        0.0939
     28 N         147.3619  142.4134  155.0671 N.3     1  UNL1       -0.2712
     29 C         148.5707  141.7857  155.6954 C.3     1  UNL1        0.0722
     30 C         149.7172  141.9282  154.7386 C.3     1  UNL1        0.0188
     31 C         149.2168  142.6440  153.5189 C.3     1  UNL1        0.0188
     32 C         147.7612  142.9438  153.7220 C.3     1  UNL1        0.0722
@<TRIPOS>BOND
     1    19    20    2
     2    20    12    1
     3    12    13   ar
     4    13    14   ar
     5    14    15   ar
     6    15     1    1
     7     1     2   ar
     8     2     3   ar
     9     3     4   ar
    10     4     5   ar
    11     5     6   ar
    12     5     7    1
    13     7     8    1
    14     8     9    1
    15     9    26    1
    16    26    27    1
    17    27    28    1
    18    28    29    1
    19    29    30    1
    20    30    31    1
    21    31    32    1
    22     9    10   am
    23    10    11    2
    24    15    16   ar
    25    16    17    1
    26    16    18   ar
    27    20    21   am
    28    21    22    1
    29    22    23    1
    30    23    24    1
    31    24    25    1
    32    18    12   ar
    33    25    21    1
    34     6     1   ar
    35    32    28    1
    36    10     4    1
@<TRIPOS>MOLECULE
*****
 32 36 0 0 0
SMALL
GASTEIGER

@<TRIPOS>ATOM
      1 C         140.5514  142.9276  162.3770 C.ar    1  UNL1        0.0019
      2 C         141.5680  144.0082  162.1566 C.ar    1  UNL1        0.0002
      3 C         141.6796  144.6706  160.8154 C.ar    1  UNL1        0.0042
      4 C         140.7745  144.2524  159.6948 C.ar    1  UNL1        0.0497
      5 C         139.7578  143.1718  159.9152 C.ar    1  UNL1       -0.0161
      6 C         139.6463  142.5094  161.2564 C.ar    1  UNL1       -0.0040
      7 C         138.8527  142.7536  158.7946 C.3     1  UNL1        0.0480
      8 C         138.9642  143.4160  157.4534 C.3     1  UNL1        0.0984
      9 N         139.9809  144.4967  157.2329 N.am    1  UNL1       -0.2743
     10 C         140.8860  144.9149  158.3536 C.2     1  UNL1        0.2488
     11 O         141.9027  145.9955  158.1331 O.2     1  UNL1       -0.2699
     12 C         140.2167  140.9402  166.4006 C.ar    1  UNL1        0.0558
     13 C         139.8365  142.3826  166.2425 C.ar    1  UNL1        0.0047
     14 C         139.9480  143.0450  164.9014 C.ar    1  UNL1        0.0024
     15 C         140.4398  142.2651  163.7182 C.ar    1  UNL1        0.0275
     16 C         140.8200  140.8227  163.8762 C.ar    1  UNL1        0.1402
     17 F         141.3118  140.0428  162.6931 F       1  UNL1       -0.2042
     18 C         140.7084  140.1602  165.2174 C.ar    1  UNL1        0.0341
     19 O         138.9021  139.4435  168.0684 O.2     1  UNL1       -0.2699
     20 C         140.1051  140.2778  167.7417 C.2     1  UNL1        0.2491
     21 N         141.1965  140.4497  168.7562 N.am    1  UNL1       -0.2761
     22 C         141.2240  139.8516  170.1315 C.3     1  UNL1        0.0938
     23 C         142.4966  140.2821  170.7988 C.3     1  UNL1        0.0233
     24 C         143.2556  141.1463  169.8359 C.3     1  UNL1        0.0233
     25 C         142.4521  141.2498  168.5735 C.3     1  UNL1        0.0938
     26 C         140.0924  145.1591  155.8918 C.3     1  UNL1        0.1110
     27 C         138.9796  146.0314  155.3912 C.3     1  UNL1        0.0939
     28 N         139.2538  147.4593  155.0223 N.3     1  UNL1       -0.2712
     29 C         138.7413  148.6704  155.7439 C.3     1  UNL1        0.0722
     30 C         139.2595  149.8864  155.0346 C.3     1  UNL1        0.0188
     31 C         140.0923  149.4267  153.8747 C.3     1  UNL1        0.0188
     32 C         140.0888  147.9267  153.8671 C.3     1  UNL1        0.0722
@<TRIPOS>BOND
     1    19    20    2
     2    20    12    1
     3    12    13   ar
     4    13    14   ar
     5    14    15   ar
     6    15     1    1
     7     1     2   ar
     8     2     3   ar
     9     3     4   ar
    10     4     5   ar
    11     5     6   ar
    12     5     7    1
    13     7     8    1
    14     8     9    1
    15     9    26    1
    16    26    27    1
    17    27    28    1
    18    28    29    1
    19    29    30    1
    20    30    31    1
    21    31    32    1
    22     9    10   am
    23    10    11    2
    24    15    16   ar
    25    16    17    1
    26    16    18   ar
    27    20    21   am
    28    21    22    1
    29    22    23    1
    30    23    24    1
    31    24    25    1
    32    18    12   ar
    33    25    21    1
    34     6     1   ar
    35    32    28    1
    36    10     4    1
@<TRIPOS>MOLECULE
*****
 32 36 0 0 0
SMALL
GASTEIGER

@<TRIPOS>ATOM
      1 C         140.5067  139.5450  158.6990 C.ar    1  UNL1        0.0019
      2 C         140.8820  140.9427  158.3046 C.ar    1  UNL1        0.0002
      3 C         140.3871  142.1076  159.1096 C.ar    1  UNL1        0.0042
      4 C         139.5169  141.8748  160.3090 C.ar    1  UNL1        0.0497
      5 C         139.1416  140.4771  160.7034 C.ar    1  UNL1       -0.0161
      6 C         139.6365  139.3122  159.8984 C.ar    1  UNL1       -0.0040
      7 C         138.2714  140.2443  161.9028 C.3     1  UNL1        0.0480
      8 C         137.7765  141.4092  162.7079 C.3     1  UNL1        0.0984
      9 N         138.1518  142.8069  162.3135 N.am    1  UNL1       -0.2743
     10 C         139.0220  143.0398  161.1141 C.2     1  UNL1        0.2488
     11 O         139.3973  144.4374  160.7197 O.2     1  UNL1       -0.2699
     12 C         141.9913  136.0502  156.2839 C.ar    1  UNL1        0.0558
     13 C         140.5778  136.5263  156.1237 C.ar    1  UNL1        0.0047
     14 C         140.0830  137.6912  156.9287 C.ar    1  UNL1        0.0024
     15 C         141.0016  138.3801  157.8940 C.ar    1  UNL1        0.0275
     16 C         142.4149  137.9041  158.0542 C.ar    1  UNL1        0.1402
     17 F         143.3335  138.5929  159.0194 F       1  UNL1       -0.2042
     18 C         142.9098  136.7391  157.2491 C.ar    1  UNL1        0.0341
     19 O         142.1091  134.7589  154.0326 O.2     1  UNL1       -0.2699
     20 C         142.4861  134.8853  155.4789 C.2     1  UNL1        0.2491
     21 N         143.3579  133.8468  156.1202 N.am    1  UNL1       -0.2761
     22 C         143.9254  132.6332  155.4456 C.3     1  UNL1        0.0938
     23 C         144.7336  131.8759  156.4572 C.3     1  UNL1        0.0233
     24 C         144.6656  132.6214  157.7570 C.3     1  UNL1        0.0233
     25 C         143.8154  133.8395  157.5488 C.3     1  UNL1        0.0938
     26 C         137.6569  143.9718  163.1185 C.3     1  UNL1        0.1110
     27 C         138.5549  144.6199  164.1303 C.3     1  UNL1        0.0939
     28 N         139.7800  143.9023  164.6145 N.3     1  UNL1       -0.2712
     29 C         141.1818  144.1253  164.1296 C.3     1  UNL1        0.0722
     30 C         142.0865  143.1966  164.8841 C.3     1  UNL1        0.0188
     31 C         141.2437  142.3997  165.8353 C.3     1  UNL1        0.0188
     32 C         139.8182  142.8358  165.6687 C.3     1  UNL1        0.0722
@<TRIPOS>BOND
     1    19    20    2
     2    20    12    1
     3    12    13   ar
     4    13    14   ar
     5    14    15   ar
     6    15     1    1
     7     1     2   ar
     8     2     3   ar
     9     3     4   ar
    10     4     5   ar
    11     5     6   ar
    12     5     7    1
    13     7     8    1
    14     8     9    1
    15     9    26    1
    16    26    27    1
    17    27    28    1
    18    28    29    1
    19    29    30    1
    20    30    31    1
    21    31    32    1
    22     9    10   am
    23    10    11    2
    24    15    16   ar
    25    16    17    1
    26    16    18   ar
    27    20    21   am
    28    21    22    1
    29    22    23    1
    30    23    24    1
    31    24    25    1
    32    18    12   ar
    33    25    21    1
    34     6     1   ar
    35    32    28    1
    36    10     4    1
@<TRIPOS>MOLECULE
*****
 32 36 0 0 0
SMALL
GASTEIGER

@<TRIPOS>ATOM
      1 C         142.9433  138.1165  157.9746 C.ar    1  UNL1        0.0019
      2 C         143.3072  139.5452  157.6984 C.ar    1  UNL1        0.0002
      3 C         143.6958  140.4520  158.8283 C.ar    1  UNL1        0.0042
      4 C         143.7205  139.9300  160.2344 C.ar    1  UNL1        0.0497
      5 C         143.3566  138.5013  160.5106 C.ar    1  UNL1       -0.0161
      6 C         142.9680  137.5946  159.3807 C.ar    1  UNL1       -0.0040
      7 C         143.3813  137.9794  161.9166 C.3     1  UNL1        0.0480
      8 C         143.7699  138.8862  163.0465 C.3     1  UNL1        0.0984
      9 N         144.1338  140.3150  162.7704 N.am    1  UNL1       -0.2743
     10 C         144.1091  140.8369  161.3643 C.2     1  UNL1        0.2488
     11 O         144.4731  142.2656  161.0881 O.2     1  UNL1       -0.2699
     12 C         141.7774  135.3959  154.5849 C.ar    1  UNL1        0.0558
     13 C         143.2263  135.6197  154.9028 C.ar    1  UNL1        0.0047
     14 C         143.6148  136.5265  156.0326 C.ar    1  UNL1        0.0024
     15 C         142.5546  137.2096  156.8447 C.ar    1  UNL1        0.0275
     16 C         141.1059  136.9858  156.5269 C.ar    1  UNL1        0.1402
     17 F         140.0457  137.6689  157.3390 F       1  UNL1       -0.2042
     18 C         140.7173  136.0790  155.3970 C.ar    1  UNL1        0.0341
     19 O         141.2723  135.0337  152.0623 O.2     1  UNL1       -0.2699
     20 C         141.3889  134.4891  153.4551 C.2     1  UNL1        0.2491
     21 N         141.1169  133.0376  153.7180 N.am    1  UNL1       -0.2761
     22 C         140.7211  132.0152  152.6942 C.3     1  UNL1        0.0938
     23 C         140.5525  130.6994  153.3943 C.3     1  UNL1        0.0233
     24 C         140.8442  130.9085  154.8508 C.3     1  UNL1        0.0233
     25 C         141.1930  132.3536  155.0508 C.3     1  UNL1        0.0938
     26 C         144.5224  141.2218  163.9002 C.3     1  UNL1        0.1110
     27 C         143.4700  141.7709  164.8172 C.3     1  UNL1        0.0939
     28 N         142.7581  143.0434  164.4650 N.3     1  UNL1       -0.2712
     29 C         143.3857  144.2691  163.8703 C.3     1  UNL1        0.0722
     30 C         142.3092  145.2969  163.6835 C.3     1  UNL1        0.0188
     31 C         141.0163  144.7063  164.1628 C.3     1  UNL1        0.0188
     32 C         141.2938  143.3136  164.6458 C.3     1  UNL1        0.0722
@<TRIPOS>BOND
     1    19    20    2
     2    20    12    1
     3    12    13   ar
     4    13    14   ar
     5    14    15   ar
     6    15     1    1
     7     1     2   ar
     8     2     3   ar
     9     3     4   ar
    10     4     5   ar
    11     5     6   ar
    12     5     7    1
    13     7     8    1
    14     8     9    1
    15     9    26    1
    16    26    27    1
    17    27    28    1
    18    28    29    1
    19    29    30    1
    20    30    31    1
    21    31    32    1
    22     9    10   am
    23    10    11    2
    24    15    16   ar
    25    16    17    1
    26    16    18   ar
    27    20    21   am
    28    21    22    1
    29    22    23    1
    30    23    24    1
    31    24    25    1
    32    18    12   ar
    33    25    21    1
    34     6     1   ar
    35    32    28    1
    36    10     4    1
@<TRIPOS>MOLECULE
*****
 32 36 0 0 0
SMALL
GASTEIGER

@<TRIPOS>ATOM
      1 C         142.9117  138.1476  158.0500 C.ar    1  UNL1        0.0019
      2 C         143.3274  139.5671  157.8011 C.ar    1  UNL1        0.0002
      3 C         143.6832  140.4576  158.9545 C.ar    1  UNL1        0.0042
      4 C         143.6234  139.9285  160.3568 C.ar    1  UNL1        0.0497
      5 C         143.2077  138.5090  160.6057 C.ar    1  UNL1       -0.0161
      6 C         142.8519  137.6185  159.4523 C.ar    1  UNL1       -0.0040
      7 C         143.1479  137.9799  162.0080 C.3     1  UNL1        0.0480
      8 C         143.5038  138.8704  163.1614 C.3     1  UNL1        0.0984
      9 N         143.9195  140.2900  162.9125 N.am    1  UNL1       -0.2743
     10 C         143.9793  140.8191  161.5102 C.2     1  UNL1        0.2488
     11 O         144.3950  142.2386  161.2613 O.2     1  UNL1       -0.2699
     12 C         141.8440  135.4759  154.5898 C.ar    1  UNL1        0.0558
     13 C         143.2839  135.7405  154.9167 C.ar    1  UNL1        0.0047
     14 C         143.6397  136.6310  156.0701 C.ar    1  UNL1        0.0024
     15 C         142.5558  137.2570  156.8966 C.ar    1  UNL1        0.0275
     16 C         141.1159  136.9925  156.5697 C.ar    1  UNL1        0.1402
     17 F         140.0319  137.6185  157.3962 F       1  UNL1       -0.2042
     18 C         140.7600  136.1019  155.4163 C.ar    1  UNL1        0.0341
     19 O         141.4594  135.1389  152.0426 O.2     1  UNL1       -0.2699
     20 C         141.4882  134.5854  153.4364 C.2     1  UNL1        0.2491
     21 N         141.1611  133.1414  153.6769 N.am    1  UNL1       -0.2761
     22 C         140.7892  132.1352  152.6285 C.3     1  UNL1        0.0938
     23 C         140.5468  130.8220  153.3117 C.3     1  UNL1        0.0233
     24 C         140.7688  131.0166  154.7824 C.3     1  UNL1        0.0233
     25 C         141.1485  132.4501  155.0081 C.3     1  UNL1        0.0938
     26 C         144.2754  141.1805  164.0659 C.3     1  UNL1        0.1110
     27 C         143.1928  141.7664  164.9230 C.3     1  UNL1        0.0939
     28 N         142.9844  141.2591  166.3192 N.3     1  UNL1       -0.2712
     29 C         142.7347  139.8328  166.7109 C.3     1  UNL1        0.0722
     30 C         142.5851  139.7811  168.2026 C.3     1  UNL1        0.0188
     31 C         142.7425  141.1755  168.7327 C.3     1  UNL1        0.0188
     32 C         142.9893  142.0889  167.5687 C.3     1  UNL1        0.0722
@<TRIPOS>BOND
     1    19    20    2
     2    20    12    1
     3    12    13   ar
     4    13    14   ar
     5    14    15   ar
     6    15     1    1
     7     1     2   ar
     8     2     3   ar
     9     3     4   ar
    10     4     5   ar
    11     5     6   ar
    12     5     7    1
    13     7     8    1
    14     8     9    1
    15     9    26    1
    16    26    27    1
    17    27    28    1
    18    28    29    1
    19    29    30    1
    20    30    31    1
    21    31    32    1
    22     9    10   am
    23    10    11    2
    24    15    16   ar
    25    16    17    1
    26    16    18   ar
    27    20    21   am
    28    21    22    1
    29    22    23    1
    30    23    24    1
    31    24    25    1
    32    18    12   ar
    33    25    21    1
    34     6     1   ar
    35    32    28    1
    36    10     4    1
