@<TRIPOS>MOLECULE
*****
 33 37 0 0 0
SMALL
GASTEIGER

@<TRIPOS>ATOM
      1 C         141.9449  143.9086  161.4478 C.ar    1  UNL1        0.1353
      2 C         141.6540  143.0196  162.6204 C.ar    1  UNL1        0.0346
      3 C         140.6343  143.4328  163.6401 C.ar    1  UNL1        0.0058
      4 C         139.9056  144.7348  163.4870 C.ar    1  UNL1        0.0208
      5 C         140.1965  145.6238  162.3143 C.ar    1  UNL1        0.1003
      6 N         141.2161  145.2107  161.2947 N.ar    1  UNL1       -0.2290
      7 C         144.1030  139.3018  155.5428 C.3     1  UNL1        0.0339
      8 C         144.4033  140.4242  156.4915 C.3     1  UNL1        0.1351
      9 C         143.3837  140.8374  157.5111 C.3     1  UNL1        0.1244
     10 N         143.6840  141.9597  158.4598 N.am    1  UNL1       -0.2590
     11 C         142.6643  142.3730  159.4795 C.2     1  UNL1        0.3089
     12 O         141.3444  141.6639  159.5503 O.2     1  UNL1       -0.2522
     13 N         142.9646  143.4954  160.4282 N.am    1  UNL1       -0.2535
     14 C         145.0039  142.6688  158.3890 C.3     1  UNL1        0.1244
     15 C         146.0235  142.2556  157.3694 C.3     1  UNL1        0.1351
     16 C         147.3434  142.9647  157.2986 C.3     1  UNL1        0.0339
     17 O         145.7232  141.1333  156.4207 O.3     1  UNL1       -0.3552
     18 H         143.8309  143.9608  160.3818 H       1  UNL1        0.1578
     19 C         140.3434  142.5438  164.8128 C.ar    1  UNL1        0.0188
     20 C         140.6450  142.8524  166.2493 C.ar    1  UNL1        0.0758
     21 N         140.1879  141.6895  167.0791 N.ar    1  UNL1       -0.3265
     22 C         139.6037  140.6621  166.1554 C.ar    1  UNL1        0.0793
     23 C         138.9967  139.3141  166.4087 C.ar    1  UNL1        0.1160
     24 N         138.4858  138.4940  165.2614 N.ar    1  UNL1       -0.2408
     25 C         138.5820  139.0220  163.8607 C.ar    1  UNL1        0.0990
     26 C         139.1890  140.3701  163.6073 C.ar    1  UNL1        0.0222
     27 C         139.6999  141.1901  164.7547 C.ar    1  UNL1        0.0203
     28 C         140.2959  141.5741  168.5708 C.3     1  UNL1        0.0906
     29 C         140.2241  142.8049  169.4254 C.3     1  UNL1        0.0547
     30 C         140.3321  142.6895  170.9170 C.3     1  UNL1        0.1441
     31 O         140.5119  141.3435  171.5541 O.3     1  UNL1       -0.3536
     32 C         140.5837  140.1128  170.6996 C.3     1  UNL1        0.1441
     33 C         140.4757  140.2282  169.2079 C.3     1  UNL1        0.0547
@<TRIPOS>BOND
     1     8     7    1
     2     8     9    1
     3     9    10    1
     4    10    11   am
     5    11    12    2
     6    11    13   am
     7    13     1    1
     8     1     2   ar
     9     2     3   ar
    10     3    19    1
    11    19    20   ar
    12    20    21   ar
    13    21    28    1
    14    28    29    1
    15    29    30    1
    16    30    31    1
    17    31    32    1
    18    32    33    1
    19    21    22   ar
    20    22    23   ar
    21    23    24   ar
    22    24    25   ar
    23    25    26   ar
    24    26    27   ar
    25     3     4   ar
    26     4     5   ar
    27     5     6   ar
    28    10    14    1
    29    14    15    1
    30    15    16    1
    31    15    17    1
    32    17     8    1
    33     6     1   ar
    34    27    19   ar
    35    33    28    1
    36    27    22   ar
    37    13    18    1
@<TRIPOS>MOLECULE
*****
 33 37 0 0 0
SMALL
GASTEIGER

@<TRIPOS>ATOM
      1 C         141.8052  142.6942  160.0796 C.ar    1  UNL1        0.1353
      2 C         141.2881  142.4811  161.4714 C.ar    1  UNL1        0.0346
      3 C         142.2263  142.0616  162.5641 C.ar    1  UNL1        0.0058
      4 C         143.6815  141.8554  162.2649 C.ar    1  UNL1        0.0208
      5 C         144.1987  142.0685  160.8730 C.ar    1  UNL1        0.1003
      6 N         143.2605  142.4879  159.7804 N.ar    1  UNL1       -0.2290
      7 C         139.0659  148.1842  155.2728 C.3     1  UNL1        0.0339
      8 C         139.0407  146.7737  155.7825 C.3     1  UNL1        0.1351
      9 C         139.9790  146.3543  156.8750 C.3     1  UNL1        0.1244
     10 N         139.9538  144.9437  157.3847 N.am    1  UNL1       -0.2590
     11 C         140.8921  144.5242  158.4773 C.2     1  UNL1        0.3089
     12 O         141.8554  145.5152  159.0603 O.2     1  UNL1       -0.2522
     13 N         140.8670  143.1136  158.9870 N.am    1  UNL1       -0.2535
     14 C         138.9905  143.9527  156.8018 C.3     1  UNL1        0.1244
     15 C         138.0523  144.3721  155.7092 C.3     1  UNL1        0.1351
     16 C         137.0889  143.3811  155.1263 C.3     1  UNL1        0.0339
     17 O         138.0774  145.7827  155.1995 O.3     1  UNL1       -0.3552
     18 H         140.2347  142.4632  158.6044 H       1  UNL1        0.1578
     19 C         141.7092  141.8485  163.9559 C.ar    1  UNL1        0.0188
     20 C         142.1932  142.5457  165.1927 C.ar    1  UNL1        0.0758
     21 N         141.4004  142.0288  166.3564 N.ar    1  UNL1       -0.3265
     22 C         140.4263  141.0122  165.8389 C.ar    1  UNL1        0.0793
     23 C         139.3903  140.1736  166.5268 C.ar    1  UNL1        0.1160
     24 N         138.5451  139.2236  165.7312 N.ar    1  UNL1       -0.2408
     25 C         138.7360  139.1122  164.2476 C.ar    1  UNL1        0.0990
     26 C         139.7720  139.9508  163.5596 C.ar    1  UNL1        0.0222
     27 C         140.6172  140.9008  164.3552 C.ar    1  UNL1        0.0203
     28 C         141.5545  142.4538  167.7867 C.3     1  UNL1        0.0906
     29 C         140.4149  143.1220  168.4975 C.3     1  UNL1        0.0547
     30 C         140.5690  143.5470  169.9278 C.3     1  UNL1        0.1441
     31 O         141.8626  143.3040  170.6472 O.3     1  UNL1       -0.3536
     32 C         143.0020  142.6359  169.9364 C.3     1  UNL1        0.1441
     33 C         142.8479  142.2109  168.5061 C.3     1  UNL1        0.0547
@<TRIPOS>BOND
     1     8     7    1
     2     8     9    1
     3     9    10    1
     4    10    11   am
     5    11    12    2
     6    11    13   am
     7    13     1    1
     8     1     2   ar
     9     2     3   ar
    10     3    19    1
    11    19    20   ar
    12    20    21   ar
    13    21    28    1
    14    28    29    1
    15    29    30    1
    16    30    31    1
    17    31    32    1
    18    32    33    1
    19    21    22   ar
    20    22    23   ar
    21    23    24   ar
    22    24    25   ar
    23    25    26   ar
    24    26    27   ar
    25     3     4   ar
    26     4     5   ar
    27     5     6   ar
    28    10    14    1
    29    14    15    1
    30    15    16    1
    31    15    17    1
    32    17     8    1
    33     6     1   ar
    34    27    19   ar
    35    33    28    1
    36    27    22   ar
    37    13    18    1
@<TRIPOS>MOLECULE
*****
 33 37 0 0 0
SMALL
GASTEIGER

@<TRIPOS>ATOM
      1 C         140.3641  142.0068  160.9076 C.ar    1  UNL1        0.1353
      2 C         140.6268  141.7293  162.3581 C.ar    1  UNL1        0.0346
      3 C         139.6469  142.1851  163.3984 C.ar    1  UNL1        0.0058
      4 C         138.4044  142.9184  162.9881 C.ar    1  UNL1        0.0208
      5 C         138.1417  143.1959  161.5376 C.ar    1  UNL1        0.1003
      6 N         139.1216  142.7401  160.4973 N.ar    1  UNL1       -0.2290
      7 C         147.1354  142.9135  157.1556 C.3     1  UNL1        0.0339
      8 C         145.8582  142.1555  157.3661 C.3     1  UNL1        0.1351
      9 C         144.8783  142.6113  158.4062 C.3     1  UNL1        0.1244
     10 N         143.6012  141.8532  158.6167 N.am    1  UNL1       -0.2590
     11 C         142.6212  142.3090  159.6569 C.2     1  UNL1        0.3089
     12 O         142.9184  143.5228  160.4866 O.2     1  UNL1       -0.2522
     13 N         141.3440  141.5510  159.8674 N.am    1  UNL1       -0.2535
     14 C         143.3040  140.6395  157.7870 C.3     1  UNL1        0.1244
     15 C         144.2839  140.1836  156.7468 C.3     1  UNL1        0.1351
     16 C         143.9867  138.9699  155.9172 C.3     1  UNL1        0.0339
     17 O         145.5610  140.9417  156.5364 O.3     1  UNL1       -0.3552
     18 H         141.1489  140.7544  159.3229 H       1  UNL1        0.1578
     19 C         139.9096  141.9076  164.8489 C.ar    1  UNL1        0.0188
     20 C         140.8530  142.6659  165.7349 C.ar    1  UNL1        0.0758
     21 N         140.8015  142.0500  167.1016 N.ar    1  UNL1       -0.3265
     22 C         139.8262  140.9111  167.0603 C.ar    1  UNL1        0.0793
     23 C         139.3689  139.9428  168.1107 C.ar    1  UNL1        0.1160
     24 N         138.3603  138.8865  167.7687 N.ar    1  UNL1       -0.2408
     25 C         137.8091  138.7985  166.3764 C.ar    1  UNL1        0.0990
     26 C         138.2665  139.7668  165.3261 C.ar    1  UNL1        0.0222
     27 C         139.2750  140.8231  165.6681 C.ar    1  UNL1        0.0203
     28 C         141.5872  142.4949  168.2994 C.3     1  UNL1        0.0906
     29 C         140.9367  143.3463  169.3492 C.3     1  UNL1        0.0547
     30 C         141.7224  143.7912  170.5470 C.3     1  UNL1        0.1441
     31 O         143.1587  143.3848  170.6950 O.3     1  UNL1       -0.3536
     32 C         143.8092  142.5335  169.6452 C.3     1  UNL1        0.1441
     33 C         143.0235  142.0886  168.4474 C.3     1  UNL1        0.0547
@<TRIPOS>BOND
     1     8     7    1
     2     8     9    1
     3     9    10    1
     4    10    11   am
     5    11    12    2
     6    11    13   am
     7    13     1    1
     8     1     2   ar
     9     2     3   ar
    10     3    19    1
    11    19    20   ar
    12    20    21   ar
    13    21    28    1
    14    28    29    1
    15    29    30    1
    16    30    31    1
    17    31    32    1
    18    32    33    1
    19    21    22   ar
    20    22    23   ar
    21    23    24   ar
    22    24    25   ar
    23    25    26   ar
    24    26    27   ar
    25     3     4   ar
    26     4     5   ar
    27     5     6   ar
    28    10    14    1
    29    14    15    1
    30    15    16    1
    31    15    17    1
    32    17     8    1
    33     6     1   ar
    34    27    19   ar
    35    33    28    1
    36    27    22   ar
    37    13    18    1
@<TRIPOS>MOLECULE
*****
 33 37 0 0 0
SMALL
GASTEIGER

@<TRIPOS>ATOM
      1 C         143.0185  138.4745  159.3464 C.ar    1  UNL1        0.1353
      2 C         141.9781  138.7378  160.3944 C.ar    1  UNL1        0.0346
      3 C         141.9900  140.0308  161.1548 C.ar    1  UNL1        0.0058
      4 C         143.0422  141.0603  160.8671 C.ar    1  UNL1        0.0208
      5 C         144.0826  140.7970  159.8191 C.ar    1  UNL1        0.1003
      6 N         144.0707  139.5041  159.0587 N.ar    1  UNL1       -0.2290
      7 C         141.6175  134.5195  152.7780 C.3     1  UNL1        0.0339
      8 C         142.0725  134.5449  154.2071 C.3     1  UNL1        0.1351
      9 C         142.0845  135.8378  154.9674 C.3     1  UNL1        0.1244
     10 N         142.5395  135.8632  156.3965 N.am    1  UNL1       -0.2590
     11 C         142.5515  137.1562  157.1569 C.2     1  UNL1        0.3089
     12 O         142.1085  138.4237  156.4883 O.2     1  UNL1       -0.2522
     13 N         143.0065  137.1816  158.5860 N.am    1  UNL1       -0.2535
     14 C         142.9825  134.5957  157.0652 C.3     1  UNL1        0.1244
     15 C         142.9705  133.3028  156.3048 C.3     1  UNL1        0.1351
     16 C         143.4136  132.0353  156.9735 C.3     1  UNL1        0.0339
     17 O         142.5155  133.2774  154.8757 O.3     1  UNL1       -0.3552
     18 H         143.2973  136.3497  159.0249 H       1  UNL1        0.1578
     19 C         140.9497  140.2942  162.2029 C.ar    1  UNL1        0.0188
     20 C         140.8814  139.6542  163.5578 C.ar    1  UNL1        0.0758
     21 N         139.6845  140.2083  164.2722 N.ar    1  UNL1       -0.3265
     22 C         139.0130  141.1906  163.3589 C.ar    1  UNL1        0.0793
     23 C         137.7906  142.0435  163.5265 C.ar    1  UNL1        0.1160
     24 N         137.3502  142.9496  162.4152 N.ar    1  UNL1       -0.2408
     25 C         138.1321  143.0027  161.1363 C.ar    1  UNL1        0.0990
     26 C         139.3545  142.1497  160.9686 C.ar    1  UNL1        0.0222
     27 C         139.7950  141.2437  162.0799 C.ar    1  UNL1        0.0203
     28 C         139.2375  139.8439  165.6569 C.3     1  UNL1        0.0906
     29 C         139.9571  140.4026  166.8487 C.3     1  UNL1        0.0547
     30 C         139.5101  140.0383  168.2334 C.3     1  UNL1        0.1441
     31 O         138.3435  139.1154  168.4265 O.3     1  UNL1       -0.3536
     32 C         137.6239  138.5567  167.2348 C.3     1  UNL1        0.1441
     33 C         138.0710  138.9211  165.8500 C.3     1  UNL1        0.0547
@<TRIPOS>BOND
     1     8     7    1
     2     8     9    1
     3     9    10    1
     4    10    11   am
     5    11    12    2
     6    11    13   am
     7    13     1    1
     8     1     2   ar
     9     2     3   ar
    10     3    19    1
    11    19    20   ar
    12    20    21   ar
    13    21    28    1
    14    28    29    1
    15    29    30    1
    16    30    31    1
    17    31    32    1
    18    32    33    1
    19    21    22   ar
    20    22    23   ar
    21    23    24   ar
    22    24    25   ar
    23    25    26   ar
    24    26    27   ar
    25     3     4   ar
    26     4     5   ar
    27     5     6   ar
    28    10    14    1
    29    14    15    1
    30    15    16    1
    31    15    17    1
    32    17     8    1
    33     6     1   ar
    34    27    19   ar
    35    33    28    1
    36    27    22   ar
    37    13    18    1
@<TRIPOS>MOLECULE
*****
 33 37 0 0 0
SMALL
GASTEIGER

@<TRIPOS>ATOM
      1 C         140.9239  140.0846  160.9606 C.ar    1  UNL1        0.1353
      2 C         140.6564  140.4564  162.3890 C.ar    1  UNL1        0.0346
      3 C         141.1936  139.6028  163.4994 C.ar    1  UNL1        0.0058
      4 C         141.9984  138.3776  163.1813 C.ar    1  UNL1        0.0208
      5 C         142.2659  138.0059  161.7529 C.ar    1  UNL1        0.1003
      6 N         141.7287  138.8594  160.6426 N.ar    1  UNL1       -0.2290
      7 C         135.5211  141.4608  155.5141 C.3     1  UNL1        0.0339
      8 C         136.7847  141.8557  156.2193 C.3     1  UNL1        0.1351
      9 C         137.3220  141.0021  157.3296 C.3     1  UNL1        0.1244
     10 N         138.5856  141.3969  158.0348 N.am    1  UNL1       -0.2590
     11 C         139.1230  140.5434  159.1452 C.2     1  UNL1        0.3089
     12 O         138.3967  139.2950  159.5502 O.2     1  UNL1       -0.2522
     13 N         140.3866  140.9382  159.8504 N.am    1  UNL1       -0.2535
     14 C         139.3119  142.6453  157.6297 C.3     1  UNL1        0.1244
     15 C         138.7747  143.4988  156.5195 C.3     1  UNL1        0.1351
     16 C         139.5010  144.7472  156.1144 C.3     1  UNL1        0.0339
     17 O         137.5110  143.1040  155.8142 O.3     1  UNL1       -0.3552
     18 H         140.8633  141.7575  159.5845 H       1  UNL1        0.1578
     19 C         140.9261  139.9745  164.9278 C.ar    1  UNL1        0.0188
     20 C         141.7236  140.9419  165.7513 C.ar    1  UNL1        0.0758
     21 N         141.1044  141.0093  167.1159 N.ar    1  UNL1       -0.3265
     22 C         139.9243  140.0836  167.1357 C.ar    1  UNL1        0.0793
     23 C         138.9358  139.7405  168.2105 C.ar    1  UNL1        0.1160
     24 N         137.8372  138.7577  167.9329 N.ar    1  UNL1       -0.2408
     25 C         137.7269  138.1182  166.5806 C.ar    1  UNL1        0.0990
     26 C         138.7154  138.4613  165.5058 C.ar    1  UNL1        0.0222
     27 C         139.8141  139.4441  165.7834 C.ar    1  UNL1        0.0203
     28 C         141.5816  141.8541  168.2598 C.3     1  UNL1        0.0906
     29 C         140.6776  142.8944  168.8521 C.3     1  UNL1        0.0547
     30 C         141.1548  143.7392  169.9961 C.3     1  UNL1        0.1441
     31 O         142.5359  143.5438  170.5477 O.3     1  UNL1       -0.3536
     32 C         143.4399  142.5036  169.9554 C.3     1  UNL1        0.1441
     33 C         142.9627  141.6588  168.8115 C.3     1  UNL1        0.0547
@<TRIPOS>BOND
     1     8     7    1
     2     8     9    1
     3     9    10    1
     4    10    11   am
     5    11    12    2
     6    11    13   am
     7    13     1    1
     8     1     2   ar
     9     2     3   ar
    10     3    19    1
    11    19    20   ar
    12    20    21   ar
    13    21    28    1
    14    28    29    1
    15    29    30    1
    16    30    31    1
    17    31    32    1
    18    32    33    1
    19    21    22   ar
    20    22    23   ar
    21    23    24   ar
    22    24    25   ar
    23    25    26   ar
    24    26    27   ar
    25     3     4   ar
    26     4     5   ar
    27     5     6   ar
    28    10    14    1
    29    14    15    1
    30    15    16    1
    31    15    17    1
    32    17     8    1
    33     6     1   ar
    34    27    19   ar
    35    33    28    1
    36    27    22   ar
    37    13    18    1
@<TRIPOS>MOLECULE
*****
 33 37 0 0 0
SMALL
GASTEIGER

@<TRIPOS>ATOM
      1 C         140.4029  141.8562  160.9156 C.ar    1  UNL1        0.1353
      2 C         140.6597  141.6262  162.3754 C.ar    1  UNL1        0.0346
      3 C         139.6226  142.0102  163.3890 C.ar    1  UNL1        0.0058
      4 C         138.3289  142.6240  162.9426 C.ar    1  UNL1        0.0208
      5 C         138.0721  142.8539  161.4828 C.ar    1  UNL1        0.1003
      6 N         139.1090  142.4700  160.4692 N.ar    1  UNL1       -0.2290
      7 C         143.3092  136.6871  155.8576 C.3     1  UNL1        0.0339
      8 C         143.3775  138.0262  156.5301 C.3     1  UNL1        0.1351
      9 C         142.3404  138.4101  157.5435 C.3     1  UNL1        0.1244
     10 N         142.4087  139.7491  158.2161 N.am    1  UNL1       -0.2590
     11 C         141.3716  140.1332  159.2296 C.2     1  UNL1        0.3089
     12 O         140.2664  139.1781  159.5705 O.2     1  UNL1       -0.2522
     13 N         141.4399  141.4722  159.9021 N.am    1  UNL1       -0.2535
     14 C         143.5140  140.7042  157.8751 C.3     1  UNL1        0.1244
     15 C         144.5510  140.3203  156.8617 C.3     1  UNL1        0.1351
     16 C         145.6563  141.2753  156.5207 C.3     1  UNL1        0.0339
     17 O         144.4827  138.9812  156.1892 O.3     1  UNL1       -0.3552
     18 H         142.1653  142.0991  159.6783 H       1  UNL1        0.1578
     19 C         139.8795  141.7802  164.8489 C.ar    1  UNL1        0.0188
     20 C         140.8174  142.5688  165.7139 C.ar    1  UNL1        0.0758
     21 N         140.7611  141.9972  167.0996 N.ar    1  UNL1       -0.3265
     22 C         139.7882  140.8555  167.0910 C.ar    1  UNL1        0.0793
     23 C         139.3282  139.9206  168.1700 C.ar    1  UNL1        0.1160
     24 N         138.3233  138.8517  167.8580 N.ar    1  UNL1       -0.2408
     25 C         137.7784  138.7176  166.4669 C.ar    1  UNL1        0.0990
     26 C         138.2385  139.6524  165.3878 C.ar    1  UNL1        0.0222
     27 C         139.2434  140.7214  165.6999 C.ar    1  UNL1        0.0203
     28 C         141.5406  142.4823  168.2858 C.3     1  UNL1        0.0906
     29 C         140.8717  143.3295  169.3274 C.3     1  UNL1        0.0547
     30 C         141.6513  143.8146  170.5136 C.3     1  UNL1        0.1441
     31 O         143.0997  143.4524  170.6583 O.3     1  UNL1       -0.3536
     32 C         143.7685  142.6052  169.6167 C.3     1  UNL1        0.1441
     33 C         142.9890  142.1202  168.4305 C.3     1  UNL1        0.0547
@<TRIPOS>BOND
     1     8     7    1
     2     8     9    1
     3     9    10    1
     4    10    11   am
     5    11    12    2
     6    11    13   am
     7    13     1    1
     8     1     2   ar
     9     2     3   ar
    10     3    19    1
    11    19    20   ar
    12    20    21   ar
    13    21    28    1
    14    28    29    1
    15    29    30    1
    16    30    31    1
    17    31    32    1
    18    32    33    1
    19    21    22   ar
    20    22    23   ar
    21    23    24   ar
    22    24    25   ar
    23    25    26   ar
    24    26    27   ar
    25     3     4   ar
    26     4     5   ar
    27     5     6   ar
    28    10    14    1
    29    14    15    1
    30    15    16    1
    31    15    17    1
    32    17     8    1
    33     6     1   ar
    34    27    19   ar
    35    33    28    1
    36    27    22   ar
    37    13    18    1
@<TRIPOS>MOLECULE
*****
 33 37 0 0 0
SMALL
GASTEIGER

@<TRIPOS>ATOM
      1 C         142.6844  143.6002  160.6816 C.ar    1  UNL1        0.1353
      2 C         142.6265  142.8447  161.9762 C.ar    1  UNL1        0.0346
      3 C         141.6814  143.2796  163.0568 C.ar    1  UNL1        0.0058
      4 C         140.7943  144.4700  162.8428 C.ar    1  UNL1        0.0208
      5 C         140.8522  145.2255  161.5482 C.ar    1  UNL1        0.1003
      6 N         141.7972  144.7906  160.4676 N.ar    1  UNL1       -0.2290
      7 C         144.5503  138.6965  154.9178 C.3     1  UNL1        0.0339
      8 C         144.8734  139.8960  155.7585 C.3     1  UNL1        0.1351
      9 C         143.9283  140.3310  156.8390 C.3     1  UNL1        0.1244
     10 N         144.2514  141.5305  157.6797 N.am    1  UNL1       -0.2590
     11 C         143.3064  141.9656  158.7604 C.2     1  UNL1        0.3089
     12 O         142.0382  141.2012  159.0002 O.2     1  UNL1       -0.2522
     13 N         143.6295  143.1651  159.6011 N.am    1  UNL1       -0.2535
     14 C         145.5196  142.2950  157.4399 C.3     1  UNL1        0.1244
     15 C         146.4646  141.8599  156.3594 C.3     1  UNL1        0.1351
     16 C         147.7327  142.6244  156.1196 C.3     1  UNL1        0.0339
     17 O         146.1415  140.6604  155.5187 O.3     1  UNL1       -0.3552
     18 H         144.4618  143.6669  159.4437 H       1  UNL1        0.1578
     19 C         141.6235  142.5241  164.3514 C.ar    1  UNL1        0.0188
     20 C         140.8589  142.9308  165.5761 C.ar    1  UNL1        0.0758
     21 N         141.0829  141.8873  166.6301 N.ar    1  UNL1       -0.3265
     22 C         141.9860  140.8357  166.0568 C.ar    1  UNL1        0.0793
     23 C         142.5472  139.5707  166.6352 C.ar    1  UNL1        0.1160
     24 N         143.4425  138.6992  165.8052 N.ar    1  UNL1       -0.2408
     25 C         143.7766  139.0928  164.3969 C.ar    1  UNL1        0.0990
     26 C         143.2154  140.3578  163.8185 C.ar    1  UNL1        0.0222
     27 C         142.3201  141.2293  164.6484 C.ar    1  UNL1        0.0203
     28 C         140.5053  141.8942  168.0144 C.3     1  UNL1        0.0906
     29 C         140.5944  143.1313  168.8582 C.3     1  UNL1        0.0547
     30 C         140.0168  143.1381  170.2425 C.3     1  UNL1        0.1441
     31 O         139.3501  141.9080  170.7831 O.3     1  UNL1       -0.3536
     32 C         139.2611  140.6710  169.9394 C.3     1  UNL1        0.1441
     33 C         139.8387  140.6641  168.5551 C.3     1  UNL1        0.0547
@<TRIPOS>BOND
     1     8     7    1
     2     8     9    1
     3     9    10    1
     4    10    11   am
     5    11    12    2
     6    11    13   am
     7    13     1    1
     8     1     2   ar
     9     2     3   ar
    10     3    19    1
    11    19    20   ar
    12    20    21   ar
    13    21    28    1
    14    28    29    1
    15    29    30    1
    16    30    31    1
    17    31    32    1
    18    32    33    1
    19    21    22   ar
    20    22    23   ar
    21    23    24   ar
    22    24    25   ar
    23    25    26   ar
    24    26    27   ar
    25     3     4   ar
    26     4     5   ar
    27     5     6   ar
    28    10    14    1
    29    14    15    1
    30    15    16    1
    31    15    17    1
    32    17     8    1
    33     6     1   ar
    34    27    19   ar
    35    33    28    1
    36    27    22   ar
    37    13    18    1
@<TRIPOS>MOLECULE
*****
 33 37 0 0 0
SMALL
GASTEIGER

@<TRIPOS>ATOM
      1 C         143.6016  139.6722  161.5861 C.ar    1  UNL1        0.1353
      2 C         142.6825  139.6181  162.7703 C.ar    1  UNL1        0.0346
      3 C         142.9357  140.4998  163.9572 C.ar    1  UNL1        0.0058
      4 C         144.1080  141.4355  163.9597 C.ar    1  UNL1        0.0208
      5 C         145.0271  141.4896  162.7756 C.ar    1  UNL1        0.1003
      6 N         144.7740  140.6079  161.5888 N.ar    1  UNL1       -0.2290
      7 C         139.0612  137.5068  155.6326 C.3     1  UNL1        0.0339
      8 C         140.3214  137.3469  156.4303 C.3     1  UNL1        0.1351
      9 C         140.5747  138.2286  157.6171 C.3     1  UNL1        0.1244
     10 N         141.8349  138.0687  158.4148 N.am    1  UNL1       -0.2590
     11 C         142.0882  138.9504  159.6016 C.2     1  UNL1        0.3089
     12 O         141.0813  139.9920  159.9907 O.2     1  UNL1       -0.2522
     13 N         143.3484  138.7905  160.3993 N.am    1  UNL1       -0.2535
     14 C         142.8417  137.0271  158.0257 C.3     1  UNL1        0.1244
     15 C         142.5885  136.1455  156.8389 C.3     1  UNL1        0.1351
     16 C         143.5953  135.1039  156.4499 C.3     1  UNL1        0.0339
     17 O         141.3283  136.3054  156.0412 O.3     1  UNL1       -0.3552
     18 H         144.0092  138.1069  160.1440 H       1  UNL1        0.1578
     19 C         142.0166  140.4457  165.1413 C.ar    1  UNL1        0.0188
     20 C         142.2060  141.1747  166.4385 C.ar    1  UNL1        0.0758
     21 N         141.0531  140.8326  167.3351 N.ar    1  UNL1       -0.3265
     22 C         140.1511  139.8923  166.5920 C.ar    1  UNL1        0.0793
     23 C         138.8646  139.2229  166.9748 C.ar    1  UNL1        0.1160
     24 N         138.1734  138.3143  166.0017 N.ar    1  UNL1       -0.2408
     25 C         138.7689  138.0752  164.6459 C.ar    1  UNL1        0.0990
     26 C         140.0555  138.7446  164.2631 C.ar    1  UNL1        0.0222
     27 C         140.7466  139.6532  165.2362 C.ar    1  UNL1        0.0203
     28 C         140.8397  141.3416  168.7299 C.3     1  UNL1        0.0906
     29 C         141.1215  140.4518  169.9042 C.3     1  UNL1        0.0547
     30 C         140.9080  140.9608  171.2990 C.3     1  UNL1        0.1441
     31 O         140.4127  142.3594  171.5195 O.3     1  UNL1       -0.3536
     32 C         140.1310  143.2490  170.3452 C.3     1  UNL1        0.1441
     33 C         140.3444  142.7401  168.9504 C.3     1  UNL1        0.0547
@<TRIPOS>BOND
     1     8     7    1
     2     8     9    1
     3     9    10    1
     4    10    11   am
     5    11    12    2
     6    11    13   am
     7    13     1    1
     8     1     2   ar
     9     2     3   ar
    10     3    19    1
    11    19    20   ar
    12    20    21   ar
    13    21    28    1
    14    28    29    1
    15    29    30    1
    16    30    31    1
    17    31    32    1
    18    32    33    1
    19    21    22   ar
    20    22    23   ar
    21    23    24   ar
    22    24    25   ar
    23    25    26   ar
    24    26    27   ar
    25     3     4   ar
    26     4     5   ar
    27     5     6   ar
    28    10    14    1
    29    14    15    1
    30    15    16    1
    31    15    17    1
    32    17     8    1
    33     6     1   ar
    34    27    19   ar
    35    33    28    1
    36    27    22   ar
    37    13    18    1
@<TRIPOS>MOLECULE
*****
 33 37 0 0 0
SMALL
GASTEIGER

@<TRIPOS>ATOM
      1 C         141.4797  141.0830  160.4484 C.ar    1  UNL1        0.1353
      2 C         141.4382  140.6675  161.8891 C.ar    1  UNL1        0.0346
      3 C         141.7600  141.6611  162.9659 C.ar    1  UNL1        0.0058
      4 C         142.1232  143.0702  162.6018 C.ar    1  UNL1        0.0208
      5 C         142.1646  143.4857  161.1611 C.ar    1  UNL1        0.1003
      6 N         141.8429  142.4921  160.0844 N.ar    1  UNL1       -0.2290
      7 C         143.5807  135.0472  155.9871 C.3     1  UNL1        0.0339
      8 C         142.5586  136.0655  156.3975 C.3     1  UNL1        0.1351
      9 C         142.8803  137.0591  157.4742 C.3     1  UNL1        0.1244
     10 N         141.8583  138.0774  157.8846 N.am    1  UNL1       -0.2590
     11 C         142.1800  139.0711  158.9613 C.2     1  UNL1        0.3089
     12 O         143.5237  139.0465  159.6275 O.2     1  UNL1       -0.2522
     13 N         141.1579  140.0894  159.3718 N.am    1  UNL1       -0.2535
     14 C         140.5146  138.1020  157.2185 C.3     1  UNL1        0.1244
     15 C         140.1928  137.1084  156.1419 C.3     1  UNL1        0.1351
     16 C         138.8491  137.1330  155.4757 C.3     1  UNL1        0.0339
     17 O         141.2149  136.0901  155.7314 O.3     1  UNL1       -0.3552
     18 H         140.2760  140.1056  158.9346 H       1  UNL1        0.1578
     19 C         141.7186  141.2456  164.4066 C.ar    1  UNL1        0.0188
     20 C         140.8050  141.8012  165.4585 C.ar    1  UNL1        0.0758
     21 N         141.1052  141.1005  166.7503 N.ar    1  UNL1       -0.3265
     22 C         142.2044  140.1118  166.4968 C.ar    1  UNL1        0.0793
     23 C         142.9091  139.1414  167.3977 C.ar    1  UNL1        0.1160
     24 N         143.9928  138.2607  166.8501 N.ar    1  UNL1       -0.2408
     25 C         144.3719  138.3504  165.4016 C.ar    1  UNL1        0.0990
     26 C         143.6672  139.3208  164.5006 C.ar    1  UNL1        0.0222
     27 C         142.5835  140.2015  165.0482 C.ar    1  UNL1        0.0203
     28 C         140.4257  141.3454  168.0649 C.3     1  UNL1        0.0906
     29 C         140.6221  142.6498  168.7792 C.3     1  UNL1        0.0547
     30 C         139.9425  142.8948  170.0938 C.3     1  UNL1        0.1441
     31 O         139.0665  141.8354  170.6942 O.3     1  UNL1       -0.3536
     32 C         138.8702  140.5311  169.9799 C.3     1  UNL1        0.1441
     33 C         139.5497  140.2861  168.6653 C.3     1  UNL1        0.0547
@<TRIPOS>BOND
     1     8     7    1
     2     8     9    1
     3     9    10    1
     4    10    11   am
     5    11    12    2
     6    11    13   am
     7    13     1    1
     8     1     2   ar
     9     2     3   ar
    10     3    19    1
    11    19    20   ar
    12    20    21   ar
    13    21    28    1
    14    28    29    1
    15    29    30    1
    16    30    31    1
    17    31    32    1
    18    32    33    1
    19    21    22   ar
    20    22    23   ar
    21    23    24   ar
    22    24    25   ar
    23    25    26   ar
    24    26    27   ar
    25     3     4   ar
    26     4     5   ar
    27     5     6   ar
    28    10    14    1
    29    14    15    1
    30    15    16    1
    31    15    17    1
    32    17     8    1
    33     6     1   ar
    34    27    19   ar
    35    33    28    1
    36    27    22   ar
    37    13    18    1
