@<TRIPOS>MOLECULE
*****
 37 40 0 0 0
SMALL
GASTEIGER

@<TRIPOS>ATOM
      1 N         139.7417  138.8595  160.8184 N.ar    1  UNL1       -0.1967
      2 N         139.7269  137.9397  162.0031 N.ar    1  UNL1       -0.1666
      3 C         139.1544  138.6925  163.1673 C.ar    1  UNL1        0.0850
      4 C         138.8152  140.0776  162.7021 C.ar    1  UNL1        0.0364
      5 C         138.2228  141.2582  163.4129 C.ar    1  UNL1        0.0396
      6 C         137.9934  142.5420  162.6719 C.ar    1  UNL1        0.1389
      7 C         138.3564  142.6453  161.2201 C.ar    1  UNL1        0.0384
      8 C         138.9488  141.4647  160.5094 C.ar    1  UNL1        0.0224
      9 C         139.1782  140.1809  161.2504 C.ar    1  UNL1        0.0872
     10 C         141.2172  137.8350  156.6924 C.ar    1  UNL1        0.1194
     11 C         142.1649  138.3984  157.7095 C.ar    1  UNL1        0.1452
     12 N         143.6045  138.6204  157.3512 N.pl3   1  UNL1       -0.3415
     13 N         141.6730  138.7399  159.0848 N.ar    1  UNL1       -0.1940
     14 C         140.2335  138.5180  159.4431 C.ar    1  UNL1        0.2554
     15 N         139.2857  137.9546  158.4260 N.ar    1  UNL1       -0.1940
     16 C         139.7776  137.6131  157.0507 C.ar    1  UNL1        0.1452
     17 N         138.8298  137.0497  156.0337 N.pl3   1  UNL1       -0.3415
     18 H         143.9273  138.3962  156.4485 H       1  UNL1        0.1438
     19 H         144.2265  138.9901  158.0187 H       1  UNL1        0.1438
     20 H         137.8850  136.9041  156.2689 H       1  UNL1        0.1438
     21 H         139.1526  136.8256  155.1310 H       1  UNL1        0.1438
     22 C         142.1076  136.0846  154.9916 C.2     1  UNL1        0.4090
     23 O         142.0144  135.0172  156.0413 O.2     1  UNL1       -0.2258
     24 N         141.7090  137.4936  155.3171 N.am    1  UNL1       -0.2181
     25 C         141.8023  138.5610  154.2674 C.3     1  UNL1        0.1237
     26 C         141.6464  135.2039  152.5912 C.3     1  UNL1        0.2574
     27 O         142.5995  135.7431  153.6163 O.3     1  UNL1       -0.4302
     28 O         137.4009  143.7227  163.3826 O.3     1  UNL1       -0.4714
     29 C         138.1134  144.3264  164.5565 C.3     1  UNL1        0.2525
     30 C         138.9557  138.1546  164.5534 C.3     1  UNL1        0.0762
     31 C         139.6028  138.8366  165.7224 C.ar    1  UNL1        0.0113
     32 C         141.0748  139.1240  165.7024 C.ar    1  UNL1       -0.0017
     33 C         141.7219  139.8059  166.8712 C.ar    1  UNL1       -0.0002
     34 C         140.8968  140.2004  168.0602 C.ar    1  UNL1        0.0023
     35 C         139.4248  139.9130  168.0803 C.ar    1  UNL1        0.0293
     36 C         138.7777  139.2311  166.9114 C.ar    1  UNL1        0.1365
     37 F         137.3057  138.9437  166.9315 F       1  UNL1       -0.2045
@<TRIPOS>BOND
     1    26    27    1
     2    27    22    1
     3    22    23    2
     4    22    24   am
     5    24    25    1
     6    24    10    1
     7    10    11   ar
     8    11    12    1
     9    11    13   ar
    10    13    14   ar
    11    14     1    1
    12     1     2   ar
    13     2     3   ar
    14     3    30    1
    15    30    31    1
    16    31    32   ar
    17    32    33   ar
    18    33    34   ar
    19    34    35   ar
    20    35    36   ar
    21    36    37    1
    22     3     4   ar
    23     4     5   ar
    24     5     6   ar
    25     6    28    1
    26    28    29    1
    27     6     7   ar
    28     7     8   ar
    29     8     9   ar
    30    14    15   ar
    31    15    16   ar
    32    16    17    1
    33    16    10   ar
    34     9     1   ar
    35    36    31   ar
    36     9     4   ar
    37    12    18    1
    38    12    19    1
    39    17    20    1
    40    17    21    1
@<TRIPOS>MOLECULE
*****
 37 40 0 0 0
SMALL
GASTEIGER

@<TRIPOS>ATOM
      1 N         139.7715  138.7182  160.5901 N.ar    1  UNL1       -0.1967
      2 N         139.7925  137.7954  161.7725 N.ar    1  UNL1       -0.1666
      3 C         139.2459  138.5422  162.9530 C.ar    1  UNL1        0.0850
      4 C         138.8871  139.9265  162.5002 C.ar    1  UNL1        0.0364
      5 C         138.3066  141.1020  163.2290 C.ar    1  UNL1        0.0396
      6 C         138.0510  142.3863  162.4974 C.ar    1  UNL1        0.1389
      7 C         138.3758  142.4950  161.0370 C.ar    1  UNL1        0.0384
      8 C         138.9563  141.3195  160.3083 C.ar    1  UNL1        0.0224
      9 C         139.2120  140.0353  161.0399 C.ar    1  UNL1        0.0872
     10 C         141.1459  137.7120  156.4249 C.ar    1  UNL1        0.1194
     11 C         139.6885  137.6389  156.7720 C.ar    1  UNL1        0.1452
     12 N         138.6891  137.2305  155.7306 N.pl3   1  UNL1       -0.3415
     13 N         139.2304  137.9743  158.1604 N.ar    1  UNL1       -0.1940
     14 C         140.2296  138.3828  159.2017 C.ar    1  UNL1        0.2554
     15 N         141.6872  138.4559  158.8547 N.ar    1  UNL1       -0.1940
     16 C         142.1453  138.1205  157.4663 C.ar    1  UNL1        0.1452
     17 N         143.6027  138.1936  157.1193 N.pl3   1  UNL1       -0.3415
     18 H         138.9898  137.0103  154.8194 H       1  UNL1        0.1438
     19 H         137.7325  137.1825  155.9584 H       1  UNL1        0.1438
     20 H         144.2586  138.4617  157.8029 H       1  UNL1        0.1438
     21 H         143.9035  137.9734  156.2081 H       1  UNL1        0.1438
     22 C         141.8930  135.9522  154.6658 C.2     1  UNL1        0.4090
     23 O         141.7239  134.8632  155.6834 O.2     1  UNL1       -0.2258
     24 N         141.6040  137.3766  155.0365 N.am    1  UNL1       -0.2181
     25 C         141.7731  138.4656  154.0190 C.3     1  UNL1        0.1237
     26 C         141.4711  134.8064  152.3724 C.3     1  UNL1        0.2574
     27 O         142.3511  135.6167  153.2774 O.3     1  UNL1       -0.4302
     28 O         137.4704  143.5619  163.2262 O.3     1  UNL1       -0.4714
     29 C         138.3547  144.4344  164.0669 C.3     1  UNL1        0.2525
     30 C         139.0862  138.0000  164.3424 C.3     1  UNL1        0.0762
     31 C         139.7220  138.7084  165.5018 C.ar    1  UNL1        0.0113
     32 C         141.2070  138.9183  165.5295 C.ar    1  UNL1       -0.0017
     33 C         141.8429  139.6266  166.6887 C.ar    1  UNL1       -0.0002
     34 C         140.9937  140.1252  167.8202 C.ar    1  UNL1        0.0023
     35 C         139.5087  139.9153  167.7925 C.ar    1  UNL1        0.0293
     36 C         138.8729  139.2069  166.6333 C.ar    1  UNL1        0.1365
     37 F         137.3879  138.9971  166.6056 F       1  UNL1       -0.2045
@<TRIPOS>BOND
     1    26    27    1
     2    27    22    1
     3    22    23    2
     4    22    24   am
     5    24    25    1
     6    24    10    1
     7    10    11   ar
     8    11    12    1
     9    11    13   ar
    10    13    14   ar
    11    14     1    1
    12     1     2   ar
    13     2     3   ar
    14     3    30    1
    15    30    31    1
    16    31    32   ar
    17    32    33   ar
    18    33    34   ar
    19    34    35   ar
    20    35    36   ar
    21    36    37    1
    22     3     4   ar
    23     4     5   ar
    24     5     6   ar
    25     6    28    1
    26    28    29    1
    27     6     7   ar
    28     7     8   ar
    29     8     9   ar
    30    14    15   ar
    31    15    16   ar
    32    16    17    1
    33    16    10   ar
    34     9     1   ar
    35    36    31   ar
    36     9     4   ar
    37    12    18    1
    38    12    19    1
    39    17    20    1
    40    17    21    1
@<TRIPOS>MOLECULE
*****
 37 40 0 0 0
SMALL
GASTEIGER

@<TRIPOS>ATOM
      1 N         142.8174  139.4513  159.1966 N.ar    1  UNL1       -0.1967
      2 N         143.3744  140.8348  159.0363 N.ar    1  UNL1       -0.1666
      3 C         143.5737  141.4156  160.4049 C.ar    1  UNL1        0.0850
      4 C         143.1399  140.3910  161.4110 C.ar    1  UNL1        0.0364
      5 C         143.1101  140.4068  162.9106 C.ar    1  UNL1        0.0396
      6 C         142.6128  139.2085  163.6634 C.ar    1  UNL1        0.1389
      7 C         142.1454  137.9944  162.9166 C.ar    1  UNL1        0.0384
      8 C         142.1752  137.9787  161.4170 C.ar    1  UNL1        0.0224
      9 C         142.6725  139.1770  160.6642 C.ar    1  UNL1        0.0872
     10 C         141.7660  136.6203  155.8603 C.ar    1  UNL1        0.1194
     11 C         140.6838  137.1946  156.7257 C.ar    1  UNL1        0.1452
     12 N         139.2511  136.8253  156.4791 N.pl3   1  UNL1       -0.3415
     13 N         141.0343  138.1383  157.8378 N.ar    1  UNL1       -0.1940
     14 C         142.4669  138.5076  158.0845 C.ar    1  UNL1        0.2554
     15 N         143.5492  137.9333  157.2191 N.ar    1  UNL1       -0.1940
     16 C         143.1987  136.9897  156.1070 C.ar    1  UNL1        0.1452
     17 N         144.2810  136.4154  155.2417 N.pl3   1  UNL1       -0.3415
     18 H         139.0210  136.2060  155.7492 H       1  UNL1        0.1438
     19 H         138.5407  137.2023  157.0470 H       1  UNL1        0.1438
     20 H         145.2214  136.6578  155.4036 H       1  UNL1        0.1438
     21 H         144.0510  135.7961  154.5118 H       1  UNL1        0.1438
     22 C         141.4870  134.1951  154.9714 C.2     1  UNL1        0.4090
     23 O         141.9090  133.6572  156.3065 O.2     1  UNL1       -0.2258
     24 N         141.4155  135.6767  154.7483 N.am    1  UNL1       -0.2181
     25 C         140.9935  136.2146  153.4132 C.3     1  UNL1        0.1237
     26 C         141.6482  131.8416  153.8827 C.3     1  UNL1        0.2574
     27 O         141.1365  133.2514  153.8593 O.3     1  UNL1       -0.4302
     28 O         142.5830  139.2241  165.1630 O.3     1  UNL1       -0.4714
     29 C         143.5617  138.3956  165.9413 C.3     1  UNL1        0.2525
     30 C         144.1123  142.7812  160.7133 C.3     1  UNL1        0.0762
     31 C         143.4280  143.6450  161.7311 C.ar    1  UNL1        0.0113
     32 C         144.1771  144.1118  162.9439 C.ar    1  UNL1       -0.0017
     33 C         143.4930  144.9756  163.9616 C.ar    1  UNL1       -0.0002
     34 C         142.0597  145.3726  163.7665 C.ar    1  UNL1        0.0023
     35 C         141.3107  144.9058  162.5536 C.ar    1  UNL1        0.0293
     36 C         141.9948  144.0421  161.5359 C.ar    1  UNL1        0.1365
     37 F         141.2457  143.5753  160.3231 F       1  UNL1       -0.2045
@<TRIPOS>BOND
     1    26    27    1
     2    27    22    1
     3    22    23    2
     4    22    24   am
     5    24    25    1
     6    24    10    1
     7    10    11   ar
     8    11    12    1
     9    11    13   ar
    10    13    14   ar
    11    14     1    1
    12     1     2   ar
    13     2     3   ar
    14     3    30    1
    15    30    31    1
    16    31    32   ar
    17    32    33   ar
    18    33    34   ar
    19    34    35   ar
    20    35    36   ar
    21    36    37    1
    22     3     4   ar
    23     4     5   ar
    24     5     6   ar
    25     6    28    1
    26    28    29    1
    27     6     7   ar
    28     7     8   ar
    29     8     9   ar
    30    14    15   ar
    31    15    16   ar
    32    16    17    1
    33    16    10   ar
    34     9     1   ar
    35    36    31   ar
    36     9     4   ar
    37    12    18    1
    38    12    19    1
    39    17    20    1
    40    17    21    1
@<TRIPOS>MOLECULE
*****
 37 40 0 0 0
SMALL
GASTEIGER

@<TRIPOS>ATOM
      1 N         142.5303  139.8808  160.0037 N.ar    1  UNL1       -0.1967
      2 N         141.1715  139.2503  160.0809 N.ar    1  UNL1       -0.1666
      3 C         140.9478  138.8029  161.4950 C.ar    1  UNL1        0.0850
      4 C         142.1683  139.1570  162.2919 C.ar    1  UNL1        0.0364
      5 C         142.5155  138.9588  163.7376 C.ar    1  UNL1        0.0396
      6 C         143.8407  139.4268  164.2616 C.ar    1  UNL1        0.1389
      7 C         144.8188  140.0930  163.3399 C.ar    1  UNL1        0.0384
      8 C         144.4717  140.2912  161.8942 C.ar    1  UNL1        0.0224
      9 C         143.1464  139.8232  161.3702 C.ar    1  UNL1        0.0872
     10 C         144.4259  141.6373  156.3197 C.ar    1  UNL1        0.1194
     11 C         144.6809  140.2047  156.6840 C.ar    1  UNL1        0.1452
     12 N         145.5677  139.3576  155.8204 N.pl3   1  UNL1       -0.3415
     13 N         144.0490  139.6193  157.9121 N.ar    1  UNL1       -0.1940
     14 C         143.1622  140.4663  158.7757 C.ar    1  UNL1        0.2554
     15 N         142.9072  141.8989  158.4114 N.ar    1  UNL1       -0.1940
     16 C         143.5391  142.4844  157.1834 C.ar    1  UNL1        0.1452
     17 N         143.2841  143.9169  156.8191 N.pl3   1  UNL1       -0.3415
     18 H         145.9824  139.7419  155.0144 H       1  UNL1        0.1438
     19 H         145.7351  138.4174  156.0595 H       1  UNL1        0.1438
     20 H         142.7020  144.4729  157.3860 H       1  UNL1        0.1438
     21 H         143.6988  144.3012  156.0131 H       1  UNL1        0.1438
     22 C         146.4260  142.8324  155.1704 C.2     1  UNL1        0.4090
     23 O         147.1624  142.8567  156.4770 O.2     1  UNL1       -0.2258
     24 N         145.0578  142.2227  155.0917 N.am    1  UNL1       -0.2181
     25 C         144.3215  142.1984  153.7851 C.3     1  UNL1        0.1237
     26 C         147.0227  144.9001  153.7146 C.3     1  UNL1        0.2574
     27 O         147.0580  143.4179  153.9424 O.3     1  UNL1       -0.4302
     28 O         144.1879  139.2287  165.7074 O.3     1  UNL1       -0.4714
     29 C         143.3608  138.3112  166.5584 C.3     1  UNL1        0.2525
     30 C         139.7192  138.1212  162.0202 C.3     1  UNL1        0.0762
     31 C         139.1587  138.5101  163.3562 C.ar    1  UNL1        0.0113
     32 C         139.0895  137.5003  164.4632 C.ar    1  UNL1       -0.0017
     33 C         138.5291  137.8891  165.7991 C.ar    1  UNL1       -0.0002
     34 C         138.0380  139.2879  166.0280 C.ar    1  UNL1        0.0023
     35 C         138.1072  140.2977  164.9210 C.ar    1  UNL1        0.0293
     36 C         138.6676  139.9088  163.5851 C.ar    1  UNL1        0.1365
     37 F         138.7369  140.9186  162.4781 F       1  UNL1       -0.2045
@<TRIPOS>BOND
     1    26    27    1
     2    27    22    1
     3    22    23    2
     4    22    24   am
     5    24    25    1
     6    24    10    1
     7    10    11   ar
     8    11    12    1
     9    11    13   ar
    10    13    14   ar
    11    14     1    1
    12     1     2   ar
    13     2     3   ar
    14     3    30    1
    15    30    31    1
    16    31    32   ar
    17    32    33   ar
    18    33    34   ar
    19    34    35   ar
    20    35    36   ar
    21    36    37    1
    22     3     4   ar
    23     4     5   ar
    24     5     6   ar
    25     6    28    1
    26    28    29    1
    27     6     7   ar
    28     7     8   ar
    29     8     9   ar
    30    14    15   ar
    31    15    16   ar
    32    16    17    1
    33    16    10   ar
    34     9     1   ar
    35    36    31   ar
    36     9     4   ar
    37    12    18    1
    38    12    19    1
    39    17    20    1
    40    17    21    1
@<TRIPOS>MOLECULE
*****
 37 40 0 0 0
SMALL
GASTEIGER

@<TRIPOS>ATOM
      1 N         142.2828  138.9462  160.1167 N.ar    1  UNL1       -0.1967
      2 N         142.0255  138.2682  161.4297 N.ar    1  UNL1       -0.1666
      3 C         142.3499  139.2405  162.5249 C.ar    1  UNL1        0.0850
      4 C         142.8077  140.5195  161.8887 C.ar    1  UNL1        0.0364
      5 C         143.2569  141.8262  162.4723 C.ar    1  UNL1        0.0396
      6 C         143.6646  142.9510  161.5676 C.ar    1  UNL1        0.1389
      7 C         143.6231  142.7691  160.0793 C.ar    1  UNL1        0.0384
      8 C         143.1739  141.4624  159.4956 C.ar    1  UNL1        0.0224
      9 C         142.7662  140.3376  160.4003 C.ar    1  UNL1        0.0872
     10 C         141.7056  137.1259  156.0419 C.ar    1  UNL1        0.1194
     11 C         143.0877  137.4335  156.5371 C.ar    1  UNL1        0.1452
     12 N         144.2774  137.1343  155.6740 N.pl3   1  UNL1       -0.3415
     13 N         143.2801  138.0403  157.8953 N.ar    1  UNL1       -0.1940
     14 C         142.0904  138.3395  158.7585 C.ar    1  UNL1        0.2554
     15 N         140.7082  138.0319  158.2633 N.ar    1  UNL1       -0.1940
     16 C         140.5159  137.4251  156.9051 C.ar    1  UNL1        0.1452
     17 N         139.1337  137.1176  156.4100 N.pl3   1  UNL1       -0.3415
     18 H         144.1512  136.7360  154.7825 H       1  UNL1        0.1438
     19 H         145.1846  137.3362  155.9989 H       1  UNL1        0.1438
     20 H         138.3529  137.3139  156.9765 H       1  UNL1        0.1438
     21 H         139.0074  136.7193  155.5186 H       1  UNL1        0.1438
     22 C         141.4852  135.0278  154.5257 C.2     1  UNL1        0.4090
     23 O         141.6494  134.1432  155.7259 O.2     1  UNL1       -0.2258
     24 N         141.5132  136.5191  154.6837 N.am    1  UNL1       -0.2181
     25 C         141.3490  137.4037  153.4835 C.3     1  UNL1        0.1237
     26 C         141.9538  133.1180  152.8277 C.3     1  UNL1        0.2574
     27 O         141.2928  134.4209  153.1675 O.3     1  UNL1       -0.4302
     28 O         144.1139  144.2578  162.1513 O.3     1  UNL1       -0.4714
     29 C         143.5304  144.7411  163.4459 C.3     1  UNL1        0.2525
     30 C         142.2365  138.9797  163.9977 C.3     1  UNL1        0.0762
     31 C         140.8871  138.9485  164.6521 C.ar    1  UNL1        0.0113
     32 C         140.1079  137.6678  164.7034 C.ar    1  UNL1       -0.0017
     33 C         138.7585  137.6365  165.3578 C.ar    1  UNL1       -0.0002
     34 C         138.1884  138.8860  165.9609 C.ar    1  UNL1        0.0023
     35 C         138.9676  140.1667  165.9095 C.ar    1  UNL1        0.0293
     36 C         140.3169  140.1980  165.2552 C.ar    1  UNL1        0.1365
     37 F         141.0961  141.4787  165.2038 F       1  UNL1       -0.2045
@<TRIPOS>BOND
     1    26    27    1
     2    27    22    1
     3    22    23    2
     4    22    24   am
     5    24    25    1
     6    24    10    1
     7    10    11   ar
     8    11    12    1
     9    11    13   ar
    10    13    14   ar
    11    14     1    1
    12     1     2   ar
    13     2     3   ar
    14     3    30    1
    15    30    31    1
    16    31    32   ar
    17    32    33   ar
    18    33    34   ar
    19    34    35   ar
    20    35    36   ar
    21    36    37    1
    22     3     4   ar
    23     4     5   ar
    24     5     6   ar
    25     6    28    1
    26    28    29    1
    27     6     7   ar
    28     7     8   ar
    29     8     9   ar
    30    14    15   ar
    31    15    16   ar
    32    16    17    1
    33    16    10   ar
    34     9     1   ar
    35    36    31   ar
    36     9     4   ar
    37    12    18    1
    38    12    19    1
    39    17    20    1
    40    17    21    1
@<TRIPOS>MOLECULE
*****
 37 40 0 0 0
SMALL
GASTEIGER

@<TRIPOS>ATOM
      1 N         141.0564  141.5888  163.8039 N.ar    1  UNL1       -0.1967
      2 N         141.1848  142.5689  164.9322 N.ar    1  UNL1       -0.1666
      3 C         140.4371  142.0193  166.1107 C.ar    1  UNL1        0.0850
      4 C         139.8467  140.6996  165.7109 C.ar    1  UNL1        0.0364
      5 C         139.0101  139.7059  166.4608 C.ar    1  UNL1        0.0396
      6 C         138.5562  138.4461  165.7850 C.ar    1  UNL1        0.1389
      7 C         138.9389  138.1800  164.3592 C.ar    1  UNL1        0.0384
      8 C         139.7756  139.1737  163.6093 C.ar    1  UNL1        0.0224
      9 C         140.2295  140.4336  164.2851 C.ar    1  UNL1        0.0872
     10 C         142.8392  142.0358  159.6963 C.ar    1  UNL1        0.1194
     11 C         143.6818  142.2886  160.9112 C.ar    1  UNL1        0.1452
     12 N         145.1187  142.6904  160.7569 N.pl3   1  UNL1       -0.3415
     13 N         143.0875  142.1396  162.2804 N.ar    1  UNL1       -0.1940
     14 C         141.6507  141.7378  162.4347 C.ar    1  UNL1        0.2554
     15 N         140.8080  141.4850  161.2198 N.ar    1  UNL1       -0.1940
     16 C         141.4022  141.6340  159.8506 C.ar    1  UNL1        0.1452
     17 N         140.5595  141.3812  158.6357 N.pl3   1  UNL1       -0.3415
     18 H         145.5088  142.7882  159.8583 H       1  UNL1        0.1438
     19 H         145.6718  142.8563  161.5543 H       1  UNL1        0.1438
     20 H         139.6164  141.1175  158.7370 H       1  UNL1        0.1438
     21 H         140.9495  141.4790  157.7371 H       1  UNL1        0.1438
     22 C         144.1376  141.0264  157.6851 C.2     1  UNL1        0.4090
     23 O         144.2475  139.7190  158.4122 O.2     1  UNL1       -0.2258
     24 N         143.4334  142.1848  158.3271 N.am    1  UNL1       -0.2181
     25 C         143.3235  143.4922  157.6000 C.3     1  UNL1        0.1237
     26 C         146.1882  141.4999  156.1616 C.3     1  UNL1        0.2574
     27 O         144.7319  141.1753  156.3159 O.3     1  UNL1       -0.4302
     28 O         137.7195  137.4522  166.5349 O.3     1  UNL1       -0.4714
     29 C         136.9574  137.8814  167.7535 C.3     1  UNL1        0.2525
     30 C         140.3033  142.6744  167.4535 C.3     1  UNL1        0.0762
     31 C         140.9391  142.0491  168.6598 C.ar    1  UNL1        0.0113
     32 C         140.0806  141.4566  169.7377 C.ar    1  UNL1       -0.0017
     33 C         140.7162  140.8313  170.9439 C.ar    1  UNL1       -0.0002
     34 C         142.2104  140.7986  171.0722 C.ar    1  UNL1        0.0023
     35 C         143.0688  141.3912  169.9942 C.ar    1  UNL1        0.0293
     36 C         142.4332  142.0165  168.7880 C.ar    1  UNL1        0.1365
     37 F         143.2917  142.6090  167.7101 F       1  UNL1       -0.2045
@<TRIPOS>BOND
     1    26    27    1
     2    27    22    1
     3    22    23    2
     4    22    24   am
     5    24    25    1
     6    24    10    1
     7    10    11   ar
     8    11    12    1
     9    11    13   ar
    10    13    14   ar
    11    14     1    1
    12     1     2   ar
    13     2     3   ar
    14     3    30    1
    15    30    31    1
    16    31    32   ar
    17    32    33   ar
    18    33    34   ar
    19    34    35   ar
    20    35    36   ar
    21    36    37    1
    22     3     4   ar
    23     4     5   ar
    24     5     6   ar
    25     6    28    1
    26    28    29    1
    27     6     7   ar
    28     7     8   ar
    29     8     9   ar
    30    14    15   ar
    31    15    16   ar
    32    16    17    1
    33    16    10   ar
    34     9     1   ar
    35    36    31   ar
    36     9     4   ar
    37    12    18    1
    38    12    19    1
    39    17    20    1
    40    17    21    1
@<TRIPOS>MOLECULE
*****
 37 40 0 0 0
SMALL
GASTEIGER

@<TRIPOS>ATOM
      1 N         142.2126  138.0443  159.9792 N.ar    1  UNL1       -0.1967
      2 N         143.0807  137.2533  159.0461 N.ar    1  UNL1       -0.1666
      3 C         142.4716  137.3209  157.6770 C.ar    1  UNL1        0.0850
      4 C         141.2271  138.1538  157.7639 C.ar    1  UNL1        0.0364
      5 C         140.2190  138.5628  156.7313 C.ar    1  UNL1        0.0396
      6 C         139.0508  139.4189  157.1215 C.ar    1  UNL1        0.1389
      7 C         138.8907  139.8660  158.5444 C.ar    1  UNL1        0.0384
      8 C         139.8988  139.4570  159.5770 C.ar    1  UNL1        0.0224
      9 C         141.0670  138.6009  159.1868 C.ar    1  UNL1        0.0872
     10 C         142.9208  138.6429  164.3826 C.ar    1  UNL1        0.1194
     11 C         141.6746  137.9545  163.9101 C.ar    1  UNL1        0.1452
     12 N         140.6645  137.4656  164.9055 N.pl3   1  UNL1       -0.3415
     13 N         141.4386  137.7550  162.4423 N.ar    1  UNL1       -0.1940
     14 C         142.4486  138.2438  161.4470 C.ar    1  UNL1        0.2554
     15 N         143.6948  138.9323  161.9195 N.ar    1  UNL1       -0.1940
     16 C         143.9309  139.1318  163.3873 C.ar    1  UNL1        0.1452
     17 N         145.1770  139.8202  163.8597 N.pl3   1  UNL1       -0.3415
     18 H         140.8195  137.5965  165.8688 H       1  UNL1        0.1438
     19 H         139.8467  137.0137  164.5953 H       1  UNL1        0.1438
     20 H         145.8399  140.1410  163.2064 H       1  UNL1        0.1438
     21 H         145.3319  139.9511  164.8231 H       1  UNL1        0.1438
     22 C         142.5815  140.0400  166.5465 C.2     1  UNL1        0.4090
     23 O         141.7702  141.0382  165.7749 O.2     1  UNL1       -0.2258
     24 N         143.1568  138.8424  165.8505 N.am    1  UNL1       -0.2181
     25 C         143.9681  137.8442  166.6221 C.3     1  UNL1        0.1237
     26 C         141.7456  139.8840  169.0016 C.3     1  UNL1        0.2574
     27 O         142.8175  140.2396  168.0144 O.3     1  UNL1       -0.4302
     28 O         138.0426  139.8280  156.0889 O.3     1  UNL1       -0.4714
     29 C         137.1512  141.0086  156.3374 C.3     1  UNL1        0.2525
     30 C         143.0121  136.6700  156.4384 C.3     1  UNL1        0.0762
     31 C         142.8246  135.1975  156.2221 C.ar    1  UNL1        0.0113
     32 C         143.8757  134.2318  156.6835 C.ar    1  UNL1       -0.0017
     33 C         143.6882  132.7594  156.4673 C.ar    1  UNL1       -0.0002
     34 C         142.4497  132.2526  155.7896 C.ar    1  UNL1        0.0023
     35 C         141.3987  133.2183  155.3281 C.ar    1  UNL1        0.0293
     36 C         141.5861  134.6907  155.5444 C.ar    1  UNL1        0.1365
     37 F         140.5351  135.6563  155.0830 F       1  UNL1       -0.2045
@<TRIPOS>BOND
     1    26    27    1
     2    27    22    1
     3    22    23    2
     4    22    24   am
     5    24    25    1
     6    24    10    1
     7    10    11   ar
     8    11    12    1
     9    11    13   ar
    10    13    14   ar
    11    14     1    1
    12     1     2   ar
    13     2     3   ar
    14     3    30    1
    15    30    31    1
    16    31    32   ar
    17    32    33   ar
    18    33    34   ar
    19    34    35   ar
    20    35    36   ar
    21    36    37    1
    22     3     4   ar
    23     4     5   ar
    24     5     6   ar
    25     6    28    1
    26    28    29    1
    27     6     7   ar
    28     7     8   ar
    29     8     9   ar
    30    14    15   ar
    31    15    16   ar
    32    16    17    1
    33    16    10   ar
    34     9     1   ar
    35    36    31   ar
    36     9     4   ar
    37    12    18    1
    38    12    19    1
    39    17    20    1
    40    17    21    1
@<TRIPOS>MOLECULE
*****
 37 40 0 0 0
SMALL
GASTEIGER

@<TRIPOS>ATOM
      1 N         142.6186  138.7180  160.0994 N.ar    1  UNL1       -0.1967
      2 N         143.8756  139.4538  160.4580 N.ar    1  UNL1       -0.1666
      3 C         143.8032  139.8134  161.9125 C.ar    1  UNL1        0.0850
      4 C         142.5015  139.2998  162.4528 C.ar    1  UNL1        0.0364
      5 C         141.8884  139.3612  163.8203 C.ar    1  UNL1        0.0396
      6 C         140.5430  138.7456  164.0673 C.ar    1  UNL1        0.1389
      7 C         139.8109  138.0686  162.9467 C.ar    1  UNL1        0.0384
      8 C         140.4241  138.0073  161.5792 C.ar    1  UNL1        0.0224
      9 C         141.7694  138.6229  161.3322 C.ar    1  UNL1        0.0872
     10 C         141.5779  137.0832  156.0381 C.ar    1  UNL1        0.1194
     11 C         140.4879  137.4953  156.9825 C.ar    1  UNL1        0.1452
     12 N         139.0510  137.3625  156.5731 N.pl3   1  UNL1       -0.3415
     13 N         140.8348  138.0403  158.3363 N.ar    1  UNL1       -0.1940
     14 C         142.2717  138.1731  158.7456 C.ar    1  UNL1        0.2554
     15 N         143.3618  137.7609  157.8012 N.ar    1  UNL1       -0.1940
     16 C         143.0149  137.2159  156.4474 C.ar    1  UNL1        0.1452
     17 N         144.1049  136.8038  155.5031 N.pl3   1  UNL1       -0.3415
     18 H         138.8233  137.0049  155.6846 H       1  UNL1        0.1438
     19 H         138.3356  137.6331  157.1930 H       1  UNL1        0.1438
     20 H         145.0480  136.8910  155.7718 H       1  UNL1        0.1438
     21 H         143.8773  136.4461  154.6145 H       1  UNL1        0.1438
     22 C         141.1955  135.0556  154.4593 C.2     1  UNL1        0.4090
     23 O         141.5069  134.1180  155.5879 O.2     1  UNL1       -0.2258
     24 N         141.2310  136.5382  154.6843 N.am    1  UNL1       -0.2181
     25 C         140.9196  137.4758  153.5556 C.3     1  UNL1        0.1237
     26 C         141.0547  133.0550  152.8076 C.3     1  UNL1        0.2574
     27 O         140.8486  134.5106  153.1055 O.3     1  UNL1       -0.4302
     28 O         139.9298  138.8069  165.4349 O.3     1  UNL1       -0.4714
     29 C         138.4429  138.9367  165.5849 C.3     1  UNL1        0.2525
     30 C         144.8490  140.5561  162.6902 C.3     1  UNL1        0.0762
     31 C         144.5505  141.9220  163.2338 C.ar    1  UNL1        0.0113
     32 C         144.4090  142.1260  164.7131 C.ar    1  UNL1       -0.0017
     33 C         144.1105  143.4918  165.2567 C.ar    1  UNL1       -0.0002
     34 C         143.9535  144.6535  164.3209 C.ar    1  UNL1        0.0023
     35 C         144.0950  144.4495  162.8416 C.ar    1  UNL1        0.0293
     36 C         144.3934  143.0838  162.2980 C.ar    1  UNL1        0.1365
     37 F         144.5349  142.8797  160.8187 F       1  UNL1       -0.2045
@<TRIPOS>BOND
     1    26    27    1
     2    27    22    1
     3    22    23    2
     4    22    24   am
     5    24    25    1
     6    24    10    1
     7    10    11   ar
     8    11    12    1
     9    11    13   ar
    10    13    14   ar
    11    14     1    1
    12     1     2   ar
    13     2     3   ar
    14     3    30    1
    15    30    31    1
    16    31    32   ar
    17    32    33   ar
    18    33    34   ar
    19    34    35   ar
    20    35    36   ar
    21    36    37    1
    22     3     4   ar
    23     4     5   ar
    24     5     6   ar
    25     6    28    1
    26    28    29    1
    27     6     7   ar
    28     7     8   ar
    29     8     9   ar
    30    14    15   ar
    31    15    16   ar
    32    16    17    1
    33    16    10   ar
    34     9     1   ar
    35    36    31   ar
    36     9     4   ar
    37    12    18    1
    38    12    19    1
    39    17    20    1
    40    17    21    1
@<TRIPOS>MOLECULE
*****
 37 40 0 0 0
SMALL
GASTEIGER

@<TRIPOS>ATOM
      1 N         142.3159  137.9410  159.9069 N.ar    1  UNL1       -0.1967
      2 N         143.1987  137.1274  159.0076 N.ar    1  UNL1       -0.1666
      3 C         142.6110  137.1601  157.6279 C.ar    1  UNL1        0.0850
      4 C         141.3649  137.9939  157.6745 C.ar    1  UNL1        0.0364
      5 C         140.3728  138.3760  156.6164 C.ar    1  UNL1        0.0396
      6 C         139.1984  139.2408  156.9668 C.ar    1  UNL1        0.1389
      7 C         139.0160  139.7234  158.3753 C.ar    1  UNL1        0.0384
      8 C         140.0081  139.3413  159.4334 C.ar    1  UNL1        0.0224
      9 C         141.1826  138.4765  159.0830 C.ar    1  UNL1        0.0872
     10 C         142.9552  138.6506  164.3044 C.ar    1  UNL1        0.1194
     11 C         143.9639  139.1451  163.3105 C.ar    1  UNL1        0.1452
     12 N         145.1857  139.8762  163.7823 N.pl3   1  UNL1       -0.3415
     13 N         143.7508  138.9086  161.8446 N.ar    1  UNL1       -0.1940
     14 C         142.5290  138.1775  161.3727 C.ar    1  UNL1        0.2554
     15 N         141.5202  137.6830  162.3667 N.ar    1  UNL1       -0.1940
     16 C         141.7333  137.9196  163.8325 C.ar    1  UNL1        0.1452
     17 N         140.7246  137.4250  164.8264 N.pl3   1  UNL1       -0.3415
     18 H         145.3255  140.0315  164.7444 H       1  UNL1        0.1438
     19 H         145.8477  140.2008  163.1300 H       1  UNL1        0.1438
     20 H         139.9227  136.9452  164.5166 H       1  UNL1        0.1438
     21 H         140.8644  137.5802  165.7884 H       1  UNL1        0.1438
     22 C         142.5985  140.1117  166.4228 C.2     1  UNL1        0.4090
     23 O         141.8158  141.0996  165.6097 O.2     1  UNL1       -0.2258
     24 N         143.1683  138.8872  165.7702 N.am    1  UNL1       -0.2181
     25 C         143.9511  137.8992  166.5834 C.3     1  UNL1        0.1237
     26 C         141.7649  139.9259  168.8766 C.3     1  UNL1        0.2574
     27 O         142.8116  140.3483  167.8887 O.3     1  UNL1       -0.4302
     28 O         138.2062  139.6230  155.9086 O.3     1  UNL1       -0.4714
     29 C         138.1047  138.8151  154.6488 C.3     1  UNL1        0.2525
     30 C         143.1709  136.4786  156.4147 C.3     1  UNL1        0.0762
     31 C         142.7050  135.1012  156.0460 C.ar    1  UNL1        0.0113
     32 C         141.8505  134.8989  154.8299 C.ar    1  UNL1       -0.0017
     33 C         141.3846  133.5216  154.4613 C.ar    1  UNL1       -0.0002
     34 C         141.7733  132.3466  155.3088 C.ar    1  UNL1        0.0023
     35 C         142.6278  132.5489  156.5248 C.ar    1  UNL1        0.0293
     36 C         143.0937  133.9262  156.8935 C.ar    1  UNL1        0.1365
     37 F         143.9482  134.1285  158.1096 F       1  UNL1       -0.2045
@<TRIPOS>BOND
     1    26    27    1
     2    27    22    1
     3    22    23    2
     4    22    24   am
     5    24    25    1
     6    24    10    1
     7    10    11   ar
     8    11    12    1
     9    11    13   ar
    10    13    14   ar
    11    14     1    1
    12     1     2   ar
    13     2     3   ar
    14     3    30    1
    15    30    31    1
    16    31    32   ar
    17    32    33   ar
    18    33    34   ar
    19    34    35   ar
    20    35    36   ar
    21    36    37    1
    22     3     4   ar
    23     4     5   ar
    24     5     6   ar
    25     6    28    1
    26    28    29    1
    27     6     7   ar
    28     7     8   ar
    29     8     9   ar
    30    14    15   ar
    31    15    16   ar
    32    16    17    1
    33    16    10   ar
    34     9     1   ar
    35    36    31   ar
    36     9     4   ar
    37    12    18    1
    38    12    19    1
    39    17    20    1
    40    17    21    1
