@<TRIPOS>MOLECULE
*****
 27 29 0 0 0
SMALL
GASTEIGER

@<TRIPOS>ATOM
      1 C         143.0843  142.4764  165.0367 C.ar    1  UNL1        0.0729
      2 C         142.5030  142.1360  166.3769 C.ar    1  UNL1        0.0302
      3 C         141.0932  142.5296  166.7047 C.ar    1  UNL1        0.0520
      4 C         140.2647  143.2635  165.6923 C.ar    1  UNL1        0.0486
      5 C         140.8460  143.6039  164.3521 C.ar    1  UNL1        0.1301
      6 N         142.2558  143.2103  164.0243 N.ar    1  UNL1       -0.2342
      7 N         140.5118  142.1892  168.0450 N.pl3   1  UNL1       -0.3027
      8 C         139.9700  140.8140  168.3001 C.3     1  UNL1        0.1231
      9 C         139.3886  140.4736  169.6402 C.3     1  UNL1        0.1636
     10 O         139.3490  141.5085  170.7254 O.3     1  UNL1       -0.3501
     11 C         139.8908  142.8837  170.4703 C.3     1  UNL1        0.1636
     12 C         140.4722  143.2241  169.1300 C.3     1  UNL1        0.1231
     13 N         140.0175  144.3378  163.3397 N.pl3   1  UNL1       -0.3057
     14 H         140.4560  144.8789  162.6439 H       1  UNL1        0.1492
     15 C         138.5211  144.2472  163.3875 C.3     1  UNL1        0.1959
     16 C         137.8336  142.9746  162.9902 C.1     1  UNL1        0.0952
     17 N         137.1462  141.7019  162.5930 N.1     1  UNL1       -0.1941
     18 C         144.4942  142.0829  164.7089 C.3     1  UNL1        0.1107
     19 S         144.7674  140.7824  164.0132 S.3     1  UNL1       -0.0709
     20 C         140.8666  138.3203  161.4436 C.3     1  UNL1        0.0534
     21 C         141.8427  138.7203  162.5099 C.ar    1  UNL1        0.0731
     22 N         142.8871  139.7907  162.3927 N.ar    1  UNL1       -0.2258
     23 C         143.6357  139.8519  163.6911 C.ar    1  UNL1        0.1711
     24 N         143.0541  138.8195  164.6107 N.ar    1  UNL1       -0.3084
     25 C         143.5020  138.5362  166.0140 C.3     1  UNL1        0.1321
     26 C         141.9460  138.1201  163.8808 C.ar    1  UNL1        0.0528
     27 C         141.0912  137.0146  164.4259 C.3     1  UNL1        0.0513
@<TRIPOS>BOND
     1    20    21    1
     2    21    22   ar
     3    22    23   ar
     4    23    19    1
     5    19    18    1
     6    18     1    1
     7     1     2   ar
     8     2     3   ar
     9     3     7    1
    10     7     8    1
    11     8     9    1
    12     9    10    1
    13    10    11    1
    14    11    12    1
    15     3     4   ar
    16     4     5   ar
    17     5    13    1
    18    13    15    1
    19    15    16    1
    20    16    17    3
    21     5     6   ar
    22    23    24   ar
    23    24    25    1
    24    24    26   ar
    25    26    27    1
    26    26    21   ar
    27     6     1   ar
    28    12     7    1
    29    13    14    1
@<TRIPOS>MOLECULE
*****
 27 29 0 0 0
SMALL
GASTEIGER

@<TRIPOS>ATOM
      1 C         143.5549  142.1570  165.0974 C.ar    1  UNL1        0.0729
      2 C         142.5826  142.8936  164.2245 C.ar    1  UNL1        0.0302
      3 C         141.2335  143.2734  164.7590 C.ar    1  UNL1        0.0520
      4 C         140.8568  142.9166  166.1664 C.ar    1  UNL1        0.0486
      5 C         141.8291  142.1801  167.0393 C.ar    1  UNL1        0.1301
      6 N         143.1781  141.8002  166.5048 N.ar    1  UNL1       -0.2342
      7 N         140.2611  144.0100  163.8861 N.pl3   1  UNL1       -0.3027
      8 C         138.8064  143.6450  163.9098 C.3     1  UNL1        0.1231
      9 C         137.8340  144.3816  163.0369 C.3     1  UNL1        0.1636
     10 O         138.3163  145.4832  162.1403 O.3     1  UNL1       -0.3501
     11 C         139.7711  145.8482  162.1166 C.3     1  UNL1        0.1636
     12 C         140.7435  145.1116  162.9896 C.3     1  UNL1        0.1231
     13 N         141.4523  141.8233  168.4467 N.pl3   1  UNL1       -0.3057
     14 H         140.9891  140.9746  168.6322 H       1  UNL1        0.1492
     15 C         141.7814  142.7595  169.5715 C.3     1  UNL1        0.1959
     16 C         140.8223  143.8512  169.9435 C.1     1  UNL1        0.0952
     17 N         139.8633  144.9430  170.3155 N.1     1  UNL1       -0.1941
     18 C         144.9040  141.7772  164.5629 C.3     1  UNL1        0.1107
     19 S         145.0959  140.4543  163.8825 S.3     1  UNL1       -0.0709
     20 C         141.1053  138.1769  161.2805 C.3     1  UNL1        0.0534
     21 C         142.0734  138.5508  162.3636 C.ar    1  UNL1        0.0731
     22 N         143.2000  139.5334  162.2386 N.ar    1  UNL1       -0.2258
     23 C         143.9076  139.5976  163.5596 C.ar    1  UNL1        0.1711
     24 N         143.2185  138.6548  164.5010 N.ar    1  UNL1       -0.3084
     25 C         143.5966  138.4033  165.9306 C.3     1  UNL1        0.1321
     26 C         142.0848  138.0079  163.7619 C.ar    1  UNL1        0.0528
     27 C         141.1303  136.9958  164.3225 C.3     1  UNL1        0.0513
@<TRIPOS>BOND
     1    20    21    1
     2    21    22   ar
     3    22    23   ar
     4    23    19    1
     5    19    18    1
     6    18     1    1
     7     1     2   ar
     8     2     3   ar
     9     3     7    1
    10     7     8    1
    11     8     9    1
    12     9    10    1
    13    10    11    1
    14    11    12    1
    15     3     4   ar
    16     4     5   ar
    17     5    13    1
    18    13    15    1
    19    15    16    1
    20    16    17    3
    21     5     6   ar
    22    23    24   ar
    23    24    25    1
    24    24    26   ar
    25    26    27    1
    26    26    21   ar
    27     6     1   ar
    28    12     7    1
    29    13    14    1
@<TRIPOS>MOLECULE
*****
 27 29 0 0 0
SMALL
GASTEIGER

@<TRIPOS>ATOM
      1 C         139.0147  140.3753  165.5846 C.ar    1  UNL1        0.0729
      2 C         138.9955  141.2574  164.3716 C.ar    1  UNL1        0.0302
      3 C         139.6995  142.5817  164.3961 C.ar    1  UNL1        0.0520
      4 C         140.4227  143.0238  165.6337 C.ar    1  UNL1        0.0486
      5 C         140.4419  142.1417  166.8467 C.ar    1  UNL1        0.1301
      6 N         139.7379  140.8174  166.8221 N.ar    1  UNL1       -0.2342
      7 N         139.6803  143.4639  163.1831 N.pl3   1  UNL1       -0.3027
      8 C         139.5953  144.9532  163.3401 C.3     1  UNL1        0.1231
      9 C         139.5761  145.8354  162.1272 C.3     1  UNL1        0.1636
     10 O         139.6420  145.2283  160.7571 O.3     1  UNL1       -0.3501
     11 C         139.7270  143.7390  160.6000 C.3     1  UNL1        0.1636
     12 C         139.7462  142.8568  161.8130 C.3     1  UNL1        0.1231
     13 N         141.1651  142.5838  168.0842 N.pl3   1  UNL1       -0.3057
     14 H         142.1328  142.4255  168.1719 H       1  UNL1        0.1492
     15 C         140.4139  143.2671  169.1881 C.3     1  UNL1        0.1959
     16 C         140.4326  142.6945  170.5744 C.1     1  UNL1        0.0952
     17 N         140.4514  142.1219  171.9607 N.1     1  UNL1       -0.1941
     18 C         138.3106  139.0509  165.5601 C.3     1  UNL1        0.1107
     19 S         139.0136  137.8376  165.0276 S.3     1  UNL1       -0.0709
     20 C         143.3458  138.0534  162.0166 C.3     1  UNL1        0.0534
     21 C         141.9111  138.0565  162.4542 C.ar    1  UNL1        0.0731
     22 N         141.4181  137.8900  163.8612 N.ar    1  UNL1       -0.2258
     23 C         139.9198  137.9574  163.8382 C.ar    1  UNL1        0.1711
     24 N         139.4868  138.1654  162.4173 N.ar    1  UNL1       -0.3084
     25 C         138.0715  138.2903  161.9362 C.3     1  UNL1        0.1321
     26 C         140.7174  138.2267  161.5619 C.ar    1  UNL1        0.0528
     27 C         140.7489  138.4237  160.0753 C.3     1  UNL1        0.0513
@<TRIPOS>BOND
     1    20    21    1
     2    21    22   ar
     3    22    23   ar
     4    23    19    1
     5    19    18    1
     6    18     1    1
     7     1     2   ar
     8     2     3   ar
     9     3     7    1
    10     7     8    1
    11     8     9    1
    12     9    10    1
    13    10    11    1
    14    11    12    1
    15     3     4   ar
    16     4     5   ar
    17     5    13    1
    18    13    15    1
    19    15    16    1
    20    16    17    3
    21     5     6   ar
    22    23    24   ar
    23    24    25    1
    24    24    26   ar
    25    26    27    1
    26    26    21   ar
    27     6     1   ar
    28    12     7    1
    29    13    14    1
@<TRIPOS>MOLECULE
*****
 27 29 0 0 0
SMALL
GASTEIGER

@<TRIPOS>ATOM
      1 C         140.0888  139.2292  165.5881 C.ar    1  UNL1        0.0729
      2 C         139.9370  139.8818  166.9301 C.ar    1  UNL1        0.0302
      3 C         141.1517  140.2056  167.7483 C.ar    1  UNL1        0.0520
      4 C         142.5183  139.8767  167.2245 C.ar    1  UNL1        0.0486
      5 C         142.6701  139.2242  165.8825 C.ar    1  UNL1        0.1301
      6 N         141.4554  138.9004  165.0643 N.ar    1  UNL1       -0.2342
      7 N         141.0000  140.8582  169.0904 N.pl3   1  UNL1       -0.3027
      8 C         140.0183  141.9776  169.2733 C.3     1  UNL1        0.1231
      9 C         139.8665  142.6302  170.6153 C.3     1  UNL1        0.1636
     10 O         140.6964  142.1635  171.7745 O.3     1  UNL1       -0.3501
     11 C         141.6780  141.0441  171.5916 C.3     1  UNL1        0.1636
     12 C         141.8298  140.3915  170.2495 C.3     1  UNL1        0.1231
     13 N         144.0367  138.8953  165.3587 N.pl3   1  UNL1       -0.3057
     14 H         144.7036  138.4784  165.9509 H       1  UNL1        0.1492
     15 C         144.3871  139.2017  163.9328 C.3     1  UNL1        0.1959
     16 C         145.1601  140.4435  163.6006 C.1     1  UNL1        0.0952
     17 N         145.9330  141.6854  163.2684 N.1     1  UNL1       -0.1941
     18 C         138.8740  138.9054  164.7699 C.3     1  UNL1        0.1107
     19 S         138.3796  139.8806  163.7430 S.3     1  UNL1       -0.0709
     20 C         138.6489  144.9195  165.2980 C.3     1  UNL1        0.0534
     21 C         138.8914  143.6429  164.5488 C.ar    1  UNL1        0.0731
     22 N         138.2298  142.3236  164.8174 N.ar    1  UNL1       -0.2258
     23 C         138.7677  141.3268  163.8340 C.ar    1  UNL1        0.1711
     24 N         139.7615  142.0298  162.9577 N.ar    1  UNL1       -0.3084
     25 C         140.5418  141.4101  161.8365 C.3     1  UNL1        0.1321
     26 C         139.8380  143.4612  163.3994 C.ar    1  UNL1        0.0528
     27 C         140.7083  144.5243  162.7975 C.3     1  UNL1        0.0513
@<TRIPOS>BOND
     1    20    21    1
     2    21    22   ar
     3    22    23   ar
     4    23    19    1
     5    19    18    1
     6    18     1    1
     7     1     2   ar
     8     2     3   ar
     9     3     7    1
    10     7     8    1
    11     8     9    1
    12     9    10    1
    13    10    11    1
    14    11    12    1
    15     3     4   ar
    16     4     5   ar
    17     5    13    1
    18    13    15    1
    19    15    16    1
    20    16    17    3
    21     5     6   ar
    22    23    24   ar
    23    24    25    1
    24    24    26   ar
    25    26    27    1
    26    26    21   ar
    27     6     1   ar
    28    12     7    1
    29    13    14    1
@<TRIPOS>MOLECULE
*****
 27 29 0 0 0
SMALL
GASTEIGER

@<TRIPOS>ATOM
      1 C         143.5828  142.2384  165.0912 C.ar    1  UNL1        0.0729
      2 C         142.5449  142.9091  164.2410 C.ar    1  UNL1        0.0302
      3 C         141.1995  143.2359  164.8181 C.ar    1  UNL1        0.0520
      4 C         140.8920  142.8920  166.2454 C.ar    1  UNL1        0.0486
      5 C         141.9298  142.2213  167.0956 C.ar    1  UNL1        0.1301
      6 N         143.2752  141.8945  166.5185 N.ar    1  UNL1       -0.2342
      7 N         140.1615  143.9066  163.9678 N.pl3   1  UNL1       -0.3027
      8 C         140.5536  145.0251  163.0485 C.3     1  UNL1        0.1231
      9 C         139.5157  145.6959  162.1983 C.3     1  UNL1        0.1636
     10 O         138.0857  145.2481  162.2674 O.3     1  UNL1       -0.3501
     11 C         137.6937  144.1296  163.1868 C.3     1  UNL1        0.1636
     12 C         138.7316  143.4589  164.0370 C.3     1  UNL1        0.1231
     13 N         141.6223  141.8774  168.5229 N.pl3   1  UNL1       -0.3057
     14 H         142.3124  141.4616  169.0887 H       1  UNL1        0.1492
     15 C         140.2634  142.1669  169.0881 C.3     1  UNL1        0.1959
     16 C         139.4793  141.0746  169.7531 C.1     1  UNL1        0.0952
     17 N         138.6953  139.9823  170.4181 N.1     1  UNL1       -0.1941
     18 C         144.9282  141.9115  164.5142 C.3     1  UNL1        0.1107
     19 S         145.1881  140.5496  163.9418 S.3     1  UNL1       -0.0709
     20 C         141.2230  137.0841  164.3283 C.3     1  UNL1        0.0534
     21 C         142.2162  138.0588  163.7686 C.ar    1  UNL1        0.0731
     22 N         143.2759  138.7822  164.5458 N.ar    1  UNL1       -0.2258
     23 C         144.0388  139.6518  163.5909 C.ar    1  UNL1        0.1711
     24 N         143.4507  139.4659  162.2236 N.ar    1  UNL1       -0.3084
     25 C         143.9086  140.1453  160.9671 C.3     1  UNL1        0.1321
     26 C         142.3243  138.4815  162.3333 C.ar    1  UNL1        0.0528
     27 C         141.4581  138.0035  161.2060 C.3     1  UNL1        0.0513
@<TRIPOS>BOND
     1    20    21    1
     2    21    22   ar
     3    22    23   ar
     4    23    19    1
     5    19    18    1
     6    18     1    1
     7     1     2   ar
     8     2     3   ar
     9     3     7    1
    10     7     8    1
    11     8     9    1
    12     9    10    1
    13    10    11    1
    14    11    12    1
    15     3     4   ar
    16     4     5   ar
    17     5    13    1
    18    13    15    1
    19    15    16    1
    20    16    17    3
    21     5     6   ar
    22    23    24   ar
    23    24    25    1
    24    24    26   ar
    25    26    27    1
    26    26    21   ar
    27     6     1   ar
    28    12     7    1
    29    13    14    1
@<TRIPOS>MOLECULE
*****
 27 29 0 0 0
SMALL
GASTEIGER

@<TRIPOS>ATOM
      1 C         143.8123  142.5976  164.8050 C.ar    1  UNL1        0.0729
      2 C         142.9907  142.2123  165.9993 C.ar    1  UNL1        0.0302
      3 C         142.6899  140.7676  166.2681 C.ar    1  UNL1        0.0520
      4 C         143.2108  139.7083  165.3427 C.ar    1  UNL1        0.0486
      5 C         144.0325  140.0936  164.1484 C.ar    1  UNL1        0.1301
      6 N         144.3332  141.5383  163.8796 N.ar    1  UNL1       -0.2342
      7 N         141.8682  140.3822  167.4625 N.pl3   1  UNL1       -0.3027
      8 C         142.5440  139.9435  168.7277 C.3     1  UNL1        0.1231
      9 C         141.7224  139.5581  169.9220 C.3     1  UNL1        0.1636
     10 O         140.2249  139.6115  169.8511 O.3     1  UNL1       -0.3501
     11 C         139.5492  140.0502  168.5859 C.3     1  UNL1        0.1636
     12 C         140.3709  140.4356  167.3915 C.3     1  UNL1        0.1231
     13 N         144.5533  139.0342  163.2230 N.pl3   1  UNL1       -0.3057
     14 H         145.4331  138.6248  163.3891 H       1  UNL1        0.1492
     15 C         143.7338  138.5986  162.0447 C.3     1  UNL1        0.1959
     16 C         142.4023  137.9420  162.2587 C.1     1  UNL1        0.0952
     17 N         141.0708  137.2853  162.4728 N.1     1  UNL1       -0.1941
     18 C         144.1131  144.0424  164.5361 C.3     1  UNL1        0.1107
     19 S         143.2574  144.8217  163.5820 S.3     1  UNL1       -0.0709
     20 C         138.0479  144.2383  164.2165 C.3     1  UNL1        0.0534
     21 C         139.4342  144.1545  163.6500 C.ar    1  UNL1        0.0731
     22 N         140.6717  144.7478  164.2557 N.ar    1  UNL1       -0.2258
     23 C         141.8288  144.4226  163.3583 C.ar    1  UNL1        0.1711
     24 N         141.3065  143.6284  162.1979 N.ar    1  UNL1       -0.3084
     25 C         142.1212  143.0938  161.0575 C.3     1  UNL1        0.1321
     26 C         139.8267  143.4627  162.3781 C.ar    1  UNL1        0.0528
     27 C         138.9017  142.7333  161.4497 C.3     1  UNL1        0.0513
@<TRIPOS>BOND
     1    20    21    1
     2    21    22   ar
     3    22    23   ar
     4    23    19    1
     5    19    18    1
     6    18     1    1
     7     1     2   ar
     8     2     3   ar
     9     3     7    1
    10     7     8    1
    11     8     9    1
    12     9    10    1
    13    10    11    1
    14    11    12    1
    15     3     4   ar
    16     4     5   ar
    17     5    13    1
    18    13    15    1
    19    15    16    1
    20    16    17    3
    21     5     6   ar
    22    23    24   ar
    23    24    25    1
    24    24    26   ar
    25    26    27    1
    26    26    21   ar
    27     6     1   ar
    28    12     7    1
    29    13    14    1
@<TRIPOS>MOLECULE
*****
 27 29 0 0 0
SMALL
GASTEIGER

@<TRIPOS>ATOM
      1 C         140.6777  143.1986  165.0609 C.ar    1  UNL1        0.0729
      2 C         140.7212  142.6742  166.4655 C.ar    1  UNL1        0.0302
      3 C         142.0294  142.2598  167.0712 C.ar    1  UNL1        0.0520
      4 C         143.2941  142.3698  166.2722 C.ar    1  UNL1        0.0486
      5 C         143.2506  142.8941  164.8675 C.ar    1  UNL1        0.1301
      6 N         141.9424  143.3085  164.2619 N.ar    1  UNL1       -0.2342
      7 N         142.0729  141.7355  168.4759 N.pl3   1  UNL1       -0.3027
      8 C         141.6238  142.6027  169.6144 C.3     1  UNL1        0.1231
      9 C         141.6673  142.0784  171.0191 C.3     1  UNL1        0.1636
     10 O         142.1600  140.6868  171.2854 O.3     1  UNL1       -0.3501
     11 C         142.6091  139.8196  170.1469 C.3     1  UNL1        0.1636
     12 C         142.5656  140.3439  168.7421 C.3     1  UNL1        0.1231
     13 N         144.5153  143.0040  164.0685 N.pl3   1  UNL1       -0.3057
     14 H         144.7460  143.8529  163.6263 H       1  UNL1        0.1492
     15 C         145.4285  141.8207  163.9431 C.3     1  UNL1        0.1959
     16 C         144.8769  140.4880  163.5313 C.1     1  UNL1        0.0952
     17 N         144.3253  139.1552  163.1194 N.1     1  UNL1       -0.1941
     18 C         139.3695  143.6130  164.4552 C.3     1  UNL1        0.1107
     19 S         138.1692  142.7223  164.5808 S.3     1  UNL1       -0.0709
     20 C         138.8105  137.5182  165.2032 C.3     1  UNL1        0.0534
     21 C         138.5852  138.8632  164.5785 C.ar    1  UNL1        0.0731
     22 N         138.5368  140.1753  165.3039 N.ar    1  UNL1       -0.2258
     23 C         138.2903  141.2552  164.2924 C.ar    1  UNL1        0.1711
     24 N         138.1863  140.6106  162.9420 N.ar    1  UNL1       -0.3084
     25 C         137.9428  141.3198  161.6429 C.3     1  UNL1        0.1321
     26 C         138.3685  139.1322  163.1188 C.ar    1  UNL1        0.0528
     27 C         138.3392  138.1036  162.0276 C.3     1  UNL1        0.0513
@<TRIPOS>BOND
     1    20    21    1
     2    21    22   ar
     3    22    23   ar
     4    23    19    1
     5    19    18    1
     6    18     1    1
     7     1     2   ar
     8     2     3   ar
     9     3     7    1
    10     7     8    1
    11     8     9    1
    12     9    10    1
    13    10    11    1
    14    11    12    1
    15     3     4   ar
    16     4     5   ar
    17     5    13    1
    18    13    15    1
    19    15    16    1
    20    16    17    3
    21     5     6   ar
    22    23    24   ar
    23    24    25    1
    24    24    26   ar
    25    26    27    1
    26    26    21   ar
    27     6     1   ar
    28    12     7    1
    29    13    14    1
@<TRIPOS>MOLECULE
*****
 27 29 0 0 0
SMALL
GASTEIGER

@<TRIPOS>ATOM
      1 C         141.8447  138.2834  164.1563 C.ar    1  UNL1        0.0729
      2 C         141.7988  138.8051  165.5619 C.ar    1  UNL1        0.0302
      3 C         142.7729  139.8566  166.0039 C.ar    1  UNL1        0.0520
      4 C         143.7929  140.3865  165.0402 C.ar    1  UNL1        0.0486
      5 C         143.8389  139.8649  163.6346 C.ar    1  UNL1        0.1301
      6 N         142.8648  138.8133  163.1927 N.ar    1  UNL1       -0.2342
      7 N         142.7269  140.3783  167.4095 N.pl3   1  UNL1       -0.3027
      8 C         142.8550  141.8504  167.6677 C.3     1  UNL1        0.1231
      9 C         142.8091  142.3721  169.0733 C.3     1  UNL1        0.1636
     10 O         142.6350  141.4217  170.2207 O.3     1  UNL1       -0.3501
     11 C         142.5070  139.9497  169.9626 C.3     1  UNL1        0.1636
     12 C         142.5529  139.4280  168.5569 C.3     1  UNL1        0.1231
     13 N         144.8590  140.3948  162.6709 N.pl3   1  UNL1       -0.3057
     14 H         145.1306  139.8536  161.8947 H       1  UNL1        0.1492
     15 C         145.4652  141.7492  162.8900 C.3     1  UNL1        0.1959
     16 C         144.7016  142.9831  162.5099 C.1     1  UNL1        0.0952
     17 N         143.9379  144.2169  162.1297 N.1     1  UNL1       -0.1941
     18 C         140.8706  137.2318  163.7143 C.3     1  UNL1        0.1107
     19 S         139.4526  137.6073  163.4009 S.3     1  UNL1       -0.0709
     20 C         138.6698  142.3777  161.2768 C.3     1  UNL1        0.0534
     21 C         138.7186  141.2428  162.2565 C.ar    1  UNL1        0.0731
     22 N         139.2080  139.8535  161.9728 N.ar    1  UNL1       -0.2258
     23 C         139.0784  139.0501  163.2329 C.ar    1  UNL1        0.1711
     24 N         138.5089  139.9428  164.2953 N.ar    1  UNL1       -0.3084
     25 C         138.2137  139.5494  165.7123 C.3     1  UNL1        0.1321
     26 C         138.2865  141.2980  163.6919 C.ar    1  UNL1        0.0528
     27 C         137.7299  142.4976  164.3996 C.3     1  UNL1        0.0513
@<TRIPOS>BOND
     1    20    21    1
     2    21    22   ar
     3    22    23   ar
     4    23    19    1
     5    19    18    1
     6    18     1    1
     7     1     2   ar
     8     2     3   ar
     9     3     7    1
    10     7     8    1
    11     8     9    1
    12     9    10    1
    13    10    11    1
    14    11    12    1
    15     3     4   ar
    16     4     5   ar
    17     5    13    1
    18    13    15    1
    19    15    16    1
    20    16    17    3
    21     5     6   ar
    22    23    24   ar
    23    24    25    1
    24    24    26   ar
    25    26    27    1
    26    26    21   ar
    27     6     1   ar
    28    12     7    1
    29    13    14    1
@<TRIPOS>MOLECULE
*****
 27 29 0 0 0
SMALL
GASTEIGER

@<TRIPOS>ATOM
      1 C         142.0781  139.4541  165.5465 C.ar    1  UNL1        0.0729
      2 C         141.7413  139.7619  166.9754 C.ar    1  UNL1        0.0302
      3 C         141.6184  141.1871  167.4266 C.ar    1  UNL1        0.0520
      4 C         141.8322  142.3045  166.4489 C.ar    1  UNL1        0.0486
      5 C         142.1690  141.9966  165.0201 C.ar    1  UNL1        0.1301
      6 N         142.2919  140.5714  164.5689 N.ar    1  UNL1       -0.2342
      7 N         141.2816  141.4951  168.8556 N.pl3   1  UNL1       -0.3027
      8 C         141.9383  140.7260  169.9634 C.3     1  UNL1        0.1231
      9 C         141.6015  141.0339  171.3923 C.3     1  UNL1        0.1636
     10 O         140.6081  142.1109  171.7134 O.3     1  UNL1       -0.3501
     11 C         139.9514  142.8800  170.6056 C.3     1  UNL1        0.1636
     12 C         140.2882  142.5721  169.1766 C.3     1  UNL1        0.1231
     13 N         142.3828  143.1139  164.0424 N.pl3   1  UNL1       -0.3057
     14 H         141.6124  143.5219  163.5849 H       1  UNL1        0.1492
     15 C         143.7704  143.6096  163.7617 C.3     1  UNL1        0.1959
     16 C         144.8662  142.6344  163.4485 C.1     1  UNL1        0.0952
     17 N         145.9621  141.6592  163.1353 N.1     1  UNL1       -0.1941
     18 C         142.2011  138.0288  165.0953 C.3     1  UNL1        0.1107
     19 S         141.0170  137.3254  164.5010 S.3     1  UNL1       -0.0709
     20 C         139.6304  138.4677  159.5357 C.3     1  UNL1        0.0534
     21 C         139.6728  138.4412  161.0349 C.ar    1  UNL1        0.0731
     22 N         140.6234  137.6420  161.8761 N.ar    1  UNL1       -0.2258
     23 C         140.3101  137.9162  163.3172 C.ar    1  UNL1        0.1711
     24 N         139.1659  138.8849  163.3666 N.ar    1  UNL1       -0.3084
     25 C         138.5278  139.4329  164.6085 C.3     1  UNL1        0.1321
     26 C         138.7720  139.2094  161.9561 C.ar    1  UNL1        0.0528
     27 C         137.6708  140.1388  161.5399 C.3     1  UNL1        0.0513
@<TRIPOS>BOND
     1    20    21    1
     2    21    22   ar
     3    22    23   ar
     4    23    19    1
     5    19    18    1
     6    18     1    1
     7     1     2   ar
     8     2     3   ar
     9     3     7    1
    10     7     8    1
    11     8     9    1
    12     9    10    1
    13    10    11    1
    14    11    12    1
    15     3     4   ar
    16     4     5   ar
    17     5    13    1
    18    13    15    1
    19    15    16    1
    20    16    17    3
    21     5     6   ar
    22    23    24   ar
    23    24    25    1
    24    24    26   ar
    25    26    27    1
    26    26    21   ar
    27     6     1   ar
    28    12     7    1
    29    13    14    1
