@<TRIPOS>MOLECULE
*****
 24 26 0 0 0
SMALL
GASTEIGER

@<TRIPOS>ATOM
      1 C         142.3785  142.0557  168.4365 C.ar    1  UNL1        0.0563
      2 C         142.7715  142.0378  166.9889 C.ar    1  UNL1        0.0322
      3 C         141.5839  142.4697  166.1808 C.ar    1  UNL1        0.0976
      4 N         140.4569  142.7546  167.1289 N.ar    1  UNL1       -0.1726
      5 N         140.9480  142.4987  168.5230 N.ar    1  UNL1       -0.2589
      6 C         140.1489  142.6578  169.7823 C.3     1  UNL1        0.0863
      7 C         139.6758  141.2396  169.6613 C.3     1  UNL1        0.0244
      8 C         140.6221  144.0761  169.9033 C.3     1  UNL1        0.0244
      9 C         139.3498  142.8170  171.0417 C.3     1  UNL1        0.0244
     10 C         143.0809  140.3788  170.2924 C.3     1  UNL1        0.0063
     11 C         143.2611  141.6941  169.5942 C.3     1  UNL1        0.0400
     12 C         144.3237  142.6478  170.0537 C.3     1  UNL1        0.0063
     13 C         141.5323  142.5949  164.6869 C.3     1  UNL1        0.1434
     14 N         140.6165  141.7125  163.8916 N.3     1  UNL1       -0.1449
     15 C         140.4582  140.2299  164.0557 C.3     1  UNL1        0.1238
     16 C         139.4420  139.7589  163.0580 C.ar    1  UNL1        0.0142
     17 C         138.8838  138.3991  162.7595 C.ar    1  UNL1       -0.0015
     18 C         137.8557  138.2307  161.6804 C.ar    1  UNL1       -0.0002
     19 C         137.3858  139.4222  160.8997 C.ar    1  UNL1        0.0014
     20 C         137.9440  140.7821  161.1981 C.ar    1  UNL1        0.0196
     21 C         138.9721  140.9505  162.2773 C.ar    1  UNL1        0.1196
     22 S         139.6980  142.1578  162.7925 S.O2    1  UNL1        0.0637
     23 O         138.8962  142.8874  161.7557 O.2     1  UNL1       -0.1528
     24 O         140.2562  143.5177  163.0909 O.2     1  UNL1       -0.1528
@<TRIPOS>BOND
     1    10    11    1
     2    11    12    1
     3    11     1    1
     4     1     2   ar
     5     2     3   ar
     6     3    13    1
     7    13    14    1
     8    14    15    1
     9    15    16    1
    10    16    17   ar
    11    17    18   ar
    12    18    19   ar
    13    19    20   ar
    14    20    21   ar
    15    21    22    1
    16    22    23    2
    17    22    24    2
    18     3     4   ar
    19     4     5   ar
    20     5     6    1
    21     6     7    1
    22     6     8    1
    23     6     9    1
    24     5     1   ar
    25    22    14    1
    26    21    16   ar
@<TRIPOS>MOLECULE
*****
 24 26 0 0 0
SMALL
GASTEIGER

@<TRIPOS>ATOM
      1 C         139.4634  140.4534  166.0663 C.ar    1  UNL1        0.0563
      2 C         139.2015  141.5217  165.0462 C.ar    1  UNL1        0.0322
      3 C         139.9780  142.7421  165.4432 C.ar    1  UNL1        0.0976
      4 N         140.7199  142.4281  166.7086 N.ar    1  UNL1       -0.1726
      5 N         140.4019  141.0137  167.0936 N.ar    1  UNL1       -0.2589
      6 C         140.9296  140.2871  168.2951 C.3     1  UNL1        0.0863
      7 C         142.0561  139.7400  167.4694 C.3     1  UNL1        0.0244
      8 C         139.8031  140.8343  169.1207 C.3     1  UNL1        0.0244
      9 C         141.4573  139.5605  169.4966 C.3     1  UNL1        0.0244
     10 C         137.7592  138.7208  166.9847 C.3     1  UNL1        0.0063
     11 C         138.8879  139.0682  166.0600 C.3     1  UNL1        0.0400
     12 C         139.4412  138.0305  165.1290 C.3     1  UNL1        0.0063
     13 C         140.0076  144.0472  164.7045 C.3     1  UNL1        0.1434
     14 N         140.5061  144.0978  163.2907 N.3     1  UNL1       -0.1449
     15 C         141.6217  143.2738  162.7192 C.3     1  UNL1        0.1238
     16 C         141.7816  143.6479  161.2754 C.ar    1  UNL1        0.0142
     17 C         142.7217  143.1641  160.2114 C.ar    1  UNL1       -0.0015
     18 C         142.6450  143.7354  158.8266 C.ar    1  UNL1       -0.0002
     19 C         141.6283  144.7906  158.5058 C.ar    1  UNL1        0.0014
     20 C         140.6882  145.2744  159.5698 C.ar    1  UNL1        0.0196
     21 C         140.7649  144.7031  160.9546 C.ar    1  UNL1        0.1196
     22 S         139.9766  144.9811  162.2001 S.O2    1  UNL1        0.0637
     23 O         139.2505  145.9655  161.3320 O.2     1  UNL1       -0.1528
     24 O         139.0365  145.4649  163.2642 O.2     1  UNL1       -0.1528
@<TRIPOS>BOND
     1    10    11    1
     2    11    12    1
     3    11     1    1
     4     1     2   ar
     5     2     3   ar
     6     3    13    1
     7    13    14    1
     8    14    15    1
     9    15    16    1
    10    16    17   ar
    11    17    18   ar
    12    18    19   ar
    13    19    20   ar
    14    20    21   ar
    15    21    22    1
    16    22    23    2
    17    22    24    2
    18     3     4   ar
    19     4     5   ar
    20     5     6    1
    21     6     7    1
    22     6     8    1
    23     6     9    1
    24     5     1   ar
    25    22    14    1
    26    21    16   ar
@<TRIPOS>MOLECULE
*****
 24 26 0 0 0
SMALL
GASTEIGER

@<TRIPOS>ATOM
      1 C         140.4626  141.0744  166.7991 C.ar    1  UNL1        0.0563
      2 C         140.7827  142.5150  166.5301 C.ar    1  UNL1        0.0322
      3 C         140.4467  142.8047  165.0972 C.ar    1  UNL1        0.0976
      4 N         139.9190  141.5432  164.4806 N.ar    1  UNL1       -0.1726
      5 N         139.9288  140.4738  165.5324 N.ar    1  UNL1       -0.2589
      6 C         139.4831  139.0533  165.3497 C.3     1  UNL1        0.0863
      7 C         138.0980  139.4322  165.7831 C.3     1  UNL1        0.0244
      8 C         140.8683  138.6745  164.9163 C.3     1  UNL1        0.0244
      9 C         139.0374  137.6328  165.1669 C.3     1  UNL1        0.0244
     10 C         141.9468  139.6833  168.4153 C.3     1  UNL1        0.0063
     11 C         140.6444  140.3598  168.1054 C.3     1  UNL1        0.0400
     12 C         139.5238  140.3219  169.1018 C.3     1  UNL1        0.0063
     13 C         140.6098  144.1243  164.4028 C.3     1  UNL1        0.1434
     14 N         141.0119  144.1670  162.9583 N.3     1  UNL1       -0.1449
     15 C         142.1211  143.3781  162.3282 C.3     1  UNL1        0.1238
     16 C         142.1701  143.7296  160.8708 C.ar    1  UNL1        0.0142
     17 C         143.0578  143.2635  159.7552 C.ar    1  UNL1       -0.0015
     18 C         142.8666  143.8037  158.3690 C.ar    1  UNL1       -0.0002
     19 C         141.7876  144.8100  158.0984 C.ar    1  UNL1        0.0014
     20 C         140.8999  145.2761  159.2140 C.ar    1  UNL1        0.0196
     21 C         141.0912  144.7359  160.6002 C.ar    1  UNL1        0.1196
     22 S         140.3753  145.0062  161.8904 S.O2    1  UNL1        0.0637
     23 O         139.5532  145.9429  161.0557 O.2     1  UNL1       -0.1528
     24 O         139.4876  145.4723  163.0061 O.2     1  UNL1       -0.1528
@<TRIPOS>BOND
     1    10    11    1
     2    11    12    1
     3    11     1    1
     4     1     2   ar
     5     2     3   ar
     6     3    13    1
     7    13    14    1
     8    14    15    1
     9    15    16    1
    10    16    17   ar
    11    17    18   ar
    12    18    19   ar
    13    19    20   ar
    14    20    21   ar
    15    21    22    1
    16    22    23    2
    17    22    24    2
    18     3     4   ar
    19     4     5   ar
    20     5     6    1
    21     6     7    1
    22     6     8    1
    23     6     9    1
    24     5     1   ar
    25    22    14    1
    26    21    16   ar
@<TRIPOS>MOLECULE
*****
 24 26 0 0 0
SMALL
GASTEIGER

@<TRIPOS>ATOM
      1 C         139.1804  141.0490  163.0394 C.ar    1  UNL1        0.0563
      2 C         139.0700  141.1777  164.5298 C.ar    1  UNL1        0.0322
      3 C         139.0077  139.7963  165.1111 C.ar    1  UNL1        0.0976
      4 N         139.0795  138.8138  163.9798 N.ar    1  UNL1       -0.1726
      5 N         139.1863  139.5880  162.6995 N.ar    1  UNL1       -0.2589
      6 C         139.2820  139.0038  161.3213 C.3     1  UNL1        0.0863
      7 C         140.7774  139.1060  161.3819 C.3     1  UNL1        0.0244
      8 C         137.7867  138.9015  161.2607 C.3     1  UNL1        0.0244
      9 C         139.3778  138.4196  159.9431 C.3     1  UNL1        0.0244
     10 C         140.5728  142.8950  161.8550 C.3     1  UNL1        0.0063
     11 C         139.2692  142.1823  162.0607 C.3     1  UNL1        0.0400
     12 C         138.0544  142.6027  161.2878 C.3     1  UNL1        0.0063
     13 C         138.8936  139.4569  166.5677 C.3     1  UNL1        0.1434
     14 N         139.7534  140.1649  167.5723 N.3     1  UNL1       -0.1449
     15 C         140.9883  140.9612  167.2707 C.3     1  UNL1        0.1238
     16 C         141.5275  141.4893  168.5670 C.ar    1  UNL1        0.0142
     17 C         142.7230  142.3374  168.8856 C.ar    1  UNL1       -0.0015
     18 C         143.0168  142.7156  170.3071 C.ar    1  UNL1       -0.0002
     19 C         142.1151  142.2457  171.4099 C.ar    1  UNL1        0.0014
     20 C         140.9196  141.3977  171.0913 C.ar    1  UNL1        0.0196
     21 C         140.6258  141.0195  169.6698 C.ar    1  UNL1        0.1196
     22 S         139.5294  140.2009  169.0551 S.O2    1  UNL1        0.0637
     23 O         139.0554  140.0597  170.4712 O.2     1  UNL1       -0.1528
     24 O         138.3339  139.3528  168.7364 O.2     1  UNL1       -0.1528
@<TRIPOS>BOND
     1    10    11    1
     2    11    12    1
     3    11     1    1
     4     1     2   ar
     5     2     3   ar
     6     3    13    1
     7    13    14    1
     8    14    15    1
     9    15    16    1
    10    16    17   ar
    11    17    18   ar
    12    18    19   ar
    13    19    20   ar
    14    20    21   ar
    15    21    22    1
    16    22    23    2
    17    22    24    2
    18     3     4   ar
    19     4     5   ar
    20     5     6    1
    21     6     7    1
    22     6     8    1
    23     6     9    1
    24     5     1   ar
    25    22    14    1
    26    21    16   ar
@<TRIPOS>MOLECULE
*****
 24 26 0 0 0
SMALL
GASTEIGER

@<TRIPOS>ATOM
      1 C         141.3630  141.3708  167.2692 C.ar    1  UNL1        0.0563
      2 C         140.3355  141.6419  166.2104 C.ar    1  UNL1        0.0322
      3 C         139.3768  140.4884  166.1886 C.ar    1  UNL1        0.0976
      4 N         139.8119  139.5044  167.2340 N.ar    1  UNL1       -0.1726
      5 N         141.0393  140.0497  167.9017 N.ar    1  UNL1       -0.2589
      6 C         141.8081  139.3899  169.0078 C.3     1  UNL1        0.0863
      7 C         140.7514  139.8033  169.9889 C.3     1  UNL1        0.0244
      8 C         142.8648  138.9765  168.0267 C.3     1  UNL1        0.0244
      9 C         142.5769  138.7300  170.1139 C.3     1  UNL1        0.0244
     10 C         143.4837  142.7019  166.5762 C.3     1  UNL1        0.0063
     11 C         142.5122  142.2640  167.6317 C.3     1  UNL1        0.0400
     12 C         142.6900  142.7191  169.0499 C.3     1  UNL1        0.0063
     13 C         138.1914  140.3442  165.2810 C.3     1  UNL1        0.1434
     14 N         138.3942  140.1476  163.8078 N.3     1  UNL1       -0.1449
     15 C         139.0178  138.9493  163.1558 C.3     1  UNL1        0.1238
     16 C         139.0181  139.1759  161.6731 C.ar    1  UNL1        0.0142
     17 C         139.5055  138.3365  160.5295 C.ar    1  UNL1       -0.0015
     18 C         139.3694  138.8354  159.1215 C.ar    1  UNL1       -0.0002
     19 C         138.7460  140.1738  158.8571 C.ar    1  UNL1        0.0014
     20 C         138.2586  141.0133  160.0006 C.ar    1  UNL1        0.0196
     21 C         138.3946  140.5143  161.4086 C.ar    1  UNL1        0.1196
     22 S         138.0091  141.1148  162.7280 S.O2    1  UNL1        0.0637
     23 O         137.5220  142.2576  161.8872 O.2     1  UNL1       -0.1528
     24 O         137.5216  141.9543  163.8716 O.2     1  UNL1       -0.1528
@<TRIPOS>BOND
     1    10    11    1
     2    11    12    1
     3    11     1    1
     4     1     2   ar
     5     2     3   ar
     6     3    13    1
     7    13    14    1
     8    14    15    1
     9    15    16    1
    10    16    17   ar
    11    17    18   ar
    12    18    19   ar
    13    19    20   ar
    14    20    21   ar
    15    21    22    1
    16    22    23    2
    17    22    24    2
    18     3     4   ar
    19     4     5   ar
    20     5     6    1
    21     6     7    1
    22     6     8    1
    23     6     9    1
    24     5     1   ar
    25    22    14    1
    26    21    16   ar
@<TRIPOS>MOLECULE
*****
 24 26 0 0 0
SMALL
GASTEIGER

@<TRIPOS>ATOM
      1 C         142.4917  141.4664  168.2009 C.ar    1  UNL1        0.0563
      2 C         143.0852  141.4326  166.8236 C.ar    1  UNL1        0.0322
      3 C         142.5173  140.2457  166.1032 C.ar    1  UNL1        0.0976
      4 N         141.5729  139.5461  167.0352 N.ar    1  UNL1       -0.1726
      5 N         141.5571  140.3004  168.3316 N.ar    1  UNL1       -0.2589
      6 C         140.7487  139.9504  169.5456 C.3     1  UNL1        0.0863
      7 C         141.9485  139.2862  170.1531 C.3     1  UNL1        0.0244
      8 C         139.5488  140.6147  168.9380 C.3     1  UNL1        0.0244
      9 C         139.9402  139.6003  170.7596 C.3     1  UNL1        0.0244
     10 C         144.1689  142.6170  169.8173 C.3     1  UNL1        0.0063
     11 C         142.7820  142.4870  169.2611 C.3     1  UNL1        0.0400
     12 C         141.6852  143.3775  169.7652 C.3     1  UNL1        0.0063
     13 C         142.8375  139.8313  164.6976 C.3     1  UNL1        0.1434
     14 N         141.7770  139.8895  163.6384 N.3     1  UNL1       -0.1449
     15 C         140.9396  141.0853  163.2939 C.3     1  UNL1        0.1238
     16 C         140.0127  140.6969  162.1803 C.ar    1  UNL1        0.0142
     17 C         138.9620  141.4652  161.4349 C.ar    1  UNL1       -0.0015
     18 C         138.1758  140.7976  160.3458 C.ar    1  UNL1       -0.0002
     19 C         138.4403  139.3616  160.0022 C.ar    1  UNL1        0.0014
     20 C         139.4909  138.5933  160.7477 C.ar    1  UNL1        0.0196
     21 C         140.2771  139.2609  161.8367 C.ar    1  UNL1        0.1196
     22 S         141.3675  138.7619  162.7379 S.O2    1  UNL1        0.0637
     23 O         141.1778  137.4738  161.9932 O.2     1  UNL1       -0.1528
     24 O         142.4183  137.9936  163.4834 O.2     1  UNL1       -0.1528
@<TRIPOS>BOND
     1    10    11    1
     2    11    12    1
     3    11     1    1
     4     1     2   ar
     5     2     3   ar
     6     3    13    1
     7    13    14    1
     8    14    15    1
     9    15    16    1
    10    16    17   ar
    11    17    18   ar
    12    18    19   ar
    13    19    20   ar
    14    20    21   ar
    15    21    22    1
    16    22    23    2
    17    22    24    2
    18     3     4   ar
    19     4     5   ar
    20     5     6    1
    21     6     7    1
    22     6     8    1
    23     6     9    1
    24     5     1   ar
    25    22    14    1
    26    21    16   ar
@<TRIPOS>MOLECULE
*****
 24 26 0 0 0
SMALL
GASTEIGER

@<TRIPOS>ATOM
      1 C         139.4281  144.3268  156.0385 C.ar    1  UNL1        0.0563
      2 C         139.8112  143.4643  157.2045 C.ar    1  UNL1        0.0322
      3 C         140.7941  144.2272  158.0422 C.ar    1  UNL1        0.0976
      4 N         141.0186  145.5612  157.3939 N.ar    1  UNL1       -0.1726
      5 N         140.1744  145.6227  156.1556 N.ar    1  UNL1       -0.2589
      6 C         140.0910  146.7774  155.2019 C.3     1  UNL1        0.0863
      7 C         141.1841  146.1712  154.3725 C.3     1  UNL1        0.0244
      8 C         138.9979  147.3835  156.0312 C.3     1  UNL1        0.0244
      9 C         140.0076  147.9321  154.2481 C.3     1  UNL1        0.0244
     10 C         138.9835  143.4430  153.6362 C.3     1  UNL1        0.0063
     11 C         138.4675  143.9580  154.9470 C.3     1  UNL1        0.0400
     12 C         136.9909  144.1043  155.1665 C.3     1  UNL1        0.0063
     13 C         141.4393  143.7415  159.3062 C.3     1  UNL1        0.1434
     14 N         140.7199  143.8768  160.6155 N.3     1  UNL1       -0.1449
     15 C         139.2896  143.5087  160.8777 C.3     1  UNL1        0.1238
     16 C         138.9901  143.8084  162.3167 C.ar    1  UNL1        0.0142
     17 C         137.7445  143.6489  163.1369 C.ar    1  UNL1       -0.0015
     18 C         137.7441  144.0427  164.5843 C.ar    1  UNL1       -0.0002
     19 C         138.9893  144.5960  165.2114 C.ar    1  UNL1        0.0014
     20 C         140.2350  144.7554  164.3911 C.ar    1  UNL1        0.0196
     21 C         140.2354  144.3616  162.9438 C.ar    1  UNL1        0.1196
     22 S         141.3044  144.4039  161.8924 S.O2    1  UNL1        0.0637
     23 O         142.1494  144.9644  162.9978 O.2     1  UNL1       -0.1528
     24 O         142.5501  144.5634  161.0720 O.2     1  UNL1       -0.1528
@<TRIPOS>BOND
     1    10    11    1
     2    11    12    1
     3    11     1    1
     4     1     2   ar
     5     2     3   ar
     6     3    13    1
     7    13    14    1
     8    14    15    1
     9    15    16    1
    10    16    17   ar
    11    17    18   ar
    12    18    19   ar
    13    19    20   ar
    14    20    21   ar
    15    21    22    1
    16    22    23    2
    17    22    24    2
    18     3     4   ar
    19     4     5   ar
    20     5     6    1
    21     6     7    1
    22     6     8    1
    23     6     9    1
    24     5     1   ar
    25    22    14    1
    26    21    16   ar
@<TRIPOS>MOLECULE
*****
 24 26 0 0 0
SMALL
GASTEIGER

@<TRIPOS>ATOM
      1 C         142.1508  141.5025  165.9975 C.ar    1  UNL1        0.0563
      2 C         141.8393  140.0621  165.7173 C.ar    1  UNL1        0.0322
      3 C         142.1735  139.7865  164.2812 C.ar    1  UNL1        0.0976
      4 N         142.6915  141.0565  163.6739 N.ar    1  UNL1       -0.1726
      5 N         142.6775  142.1170  164.7346 N.ar    1  UNL1       -0.2589
      6 C         143.1136  143.5418  164.5626 C.3     1  UNL1        0.0863
      7 C         141.7095  143.9281  164.2029 C.3     1  UNL1        0.0244
      8 C         144.5177  143.1555  164.9223 C.3     1  UNL1        0.0244
      9 C         143.5497  144.9667  164.3906 C.3     1  UNL1        0.0244
     10 C         140.6350  142.7940  167.6661 C.3     1  UNL1        0.0063
     11 C         141.9677  142.2050  167.3102 C.3     1  UNL1        0.0400
     12 C         143.1174  142.3183  168.2669 C.3     1  UNL1        0.0063
     13 C         142.0171  138.4718  163.5763 C.3     1  UNL1        0.1434
     14 N         141.7021  138.4397  162.1101 N.3     1  UNL1       -0.1449
     15 C         140.3670  138.7248  161.4887 C.3     1  UNL1        0.1238
     16 C         140.5066  138.5782  160.0024 C.ar    1  UNL1        0.0142
     17 C         139.5231  138.7383  158.8812 C.ar    1  UNL1       -0.0015
     18 C         139.9610  138.5228  157.4629 C.ar    1  UNL1       -0.0002
     19 C         141.3824  138.1471  157.1657 C.ar    1  UNL1        0.0014
     20 C         142.3660  137.9870  158.2868 C.ar    1  UNL1        0.0196
     21 C         141.9281  138.2026  159.7052 C.ar    1  UNL1        0.1196
     22 S         142.6669  138.1170  161.0078 S.O2    1  UNL1        0.0637
     23 O         143.8373  137.7608  160.1399 O.2     1  UNL1       -0.1528
     24 O         143.6505  137.9569  162.1290 O.2     1  UNL1       -0.1528
@<TRIPOS>BOND
     1    10    11    1
     2    11    12    1
     3    11     1    1
     4     1     2   ar
     5     2     3   ar
     6     3    13    1
     7    13    14    1
     8    14    15    1
     9    15    16    1
    10    16    17   ar
    11    17    18   ar
    12    18    19   ar
    13    19    20   ar
    14    20    21   ar
    15    21    22    1
    16    22    23    2
    17    22    24    2
    18     3     4   ar
    19     4     5   ar
    20     5     6    1
    21     6     7    1
    22     6     8    1
    23     6     9    1
    24     5     1   ar
    25    22    14    1
    26    21    16   ar
@<TRIPOS>MOLECULE
*****
 24 26 0 0 0
SMALL
GASTEIGER

@<TRIPOS>ATOM
      1 C         139.7585  140.0475  162.2490 C.ar    1  UNL1        0.0563
      2 C         139.6619  141.0287  163.3796 C.ar    1  UNL1        0.0322
      3 C         141.0542  141.4396  163.7571 C.ar    1  UNL1        0.0976
      4 N         142.0115  140.7124  162.8598 N.ar    1  UNL1       -0.1726
      5 N         141.2107  139.8521  161.9278 N.ar    1  UNL1       -0.2589
      6 C         141.7647  138.9541  160.8617 C.3     1  UNL1        0.0863
      7 C         141.9007  137.8472  161.8648 C.3     1  UNL1        0.0244
      8 C         141.6287  140.0611  159.8586 C.3     1  UNL1        0.0244
      9 C         142.3188  138.0561  159.7956 C.3     1  UNL1        0.0244
     10 C         138.1794  138.0026  161.9765 C.3     1  UNL1        0.0063
     11 C         138.6055  139.3792  161.5605 C.3     1  UNL1        0.0400
     12 C         137.8787  140.0876  160.4561 C.3     1  UNL1        0.0063
     13 C         141.4244  142.4076  164.8414 C.3     1  UNL1        0.1434
     14 N         141.3331  141.9931  166.2801 N.3     1  UNL1       -0.1449
     15 C         140.1700  141.3002  166.9260 C.3     1  UNL1        0.1238
     16 C         140.5069  141.0776  168.3706 C.ar    1  UNL1        0.0142
     17 C         139.7422  140.4409  169.4930 C.ar    1  UNL1       -0.0015
     18 C         140.3488  140.3597  170.8624 C.ar    1  UNL1       -0.0002
     19 C         141.7201  140.9151  171.1095 C.ar    1  UNL1        0.0014
     20 C         142.4849  141.5517  169.9871 C.ar    1  UNL1        0.0196
     21 C         141.8783  141.6330  168.6176 C.ar    1  UNL1        0.1196
     22 S         142.3888  142.1988  167.3257 S.O2    1  UNL1        0.0637
     23 O         143.6044  142.5376  168.1365 O.2     1  UNL1       -0.1528
     24 O         143.1536  142.8355  166.2032 O.2     1  UNL1       -0.1528
@<TRIPOS>BOND
     1    10    11    1
     2    11    12    1
     3    11     1    1
     4     1     2   ar
     5     2     3   ar
     6     3    13    1
     7    13    14    1
     8    14    15    1
     9    15    16    1
    10    16    17   ar
    11    17    18   ar
    12    18    19   ar
    13    19    20   ar
    14    20    21   ar
    15    21    22    1
    16    22    23    2
    17    22    24    2
    18     3     4   ar
    19     4     5   ar
    20     5     6    1
    21     6     7    1
    22     6     8    1
    23     6     9    1
    24     5     1   ar
    25    22    14    1
    26    21    16   ar
