@<TRIPOS>MOLECULE
*****
 29 31 0 0 0
SMALL
GASTEIGER

@<TRIPOS>ATOM
      1 C         139.4056  137.8042  163.5075 C.ar    1  UNL1        0.1393
      2 C         140.8198  137.5239  163.0934 C.ar    1  UNL1        0.0370
      3 C         141.9493  137.8171  164.0357 C.ar    1  UNL1        0.0063
      4 C         141.6647  138.3906  165.3923 C.ar    1  UNL1        0.0392
      5 C         140.2506  138.6709  165.8064 C.ar    1  UNL1        0.0063
      6 C         139.1210  138.3777  164.8640 C.ar    1  UNL1        0.0370
      7 C         142.7944  138.6838  166.3346 C.2     1  UNL1        0.1961
      8 O         143.9880  137.7764  166.3799 O.2     1  UNL1       -0.2866
      9 C         142.7304  139.8842  167.2317 C.ar    1  UNL1        0.0460
     10 C         142.3976  139.7177  168.6848 C.ar    1  UNL1        0.0151
     11 C         142.3336  140.9182  169.5819 C.ar    1  UNL1        0.0578
     12 CL        142.0008  140.7517  171.0350 Cl      1  UNL1       -0.0822
     13 C         142.6024  142.2851  169.0259 C.ar    1  UNL1        0.0119
     14 C         142.9352  142.4516  167.5728 C.ar    1  UNL1        0.0077
     15 C         142.9992  141.2512  166.6757 C.ar    1  UNL1        0.0377
     16 BR        143.3320  141.4177  165.2226 Br      1  UNL1       -0.0489
     17 O         138.2760  137.5110  162.5652 O.3     1  UNL1       -0.4656
     18 C         137.6789  138.6149  161.7437 C.3     1  UNL1        0.2897
     19 O         139.3892  140.4907  161.1902 O.2     1  UNL1       -0.2707
     20 C         138.1624  140.0243  161.9166 C.2     1  UNL1        0.2707
     21 N         137.4193  140.9672  162.8158 N.am    1  UNL1       -0.2807
     22 H         136.6141  140.6611  163.2925 H       1  UNL1        0.1550
     23 C         137.9029  142.3766  162.9886 C.ar    1  UNL1        0.0558
     24 C         138.4292  143.1389  161.8088 C.ar    1  UNL1        0.0355
     25 C         138.9128  144.5483  161.9817 C.ar    1  UNL1        0.1026
     26 N         138.8701  145.1953  163.3343 N.ar    1  UNL1       -0.2164
     27 C         138.3439  144.4329  164.5141 C.ar    1  UNL1        0.2236
     28 F         138.3012  145.0799  165.8667 F       1  UNL1       -0.1832
     29 C         137.8602  143.0236  164.3412 C.ar    1  UNL1        0.0643
@<TRIPOS>BOND
     1    19    20    2
     2    20    18    1
     3    18    17    1
     4    17     1    1
     5     1     2   ar
     6     2     3   ar
     7     3     4   ar
     8     4     7    1
     9     7     8    2
    10     7     9    1
    11     9    10   ar
    12    10    11   ar
    13    11    12    1
    14    11    13   ar
    15    13    14   ar
    16    14    15   ar
    17    15    16    1
    18     4     5   ar
    19     5     6   ar
    20    20    21   am
    21    21    23    1
    22    23    24   ar
    23    24    25   ar
    24    25    26   ar
    25    26    27   ar
    26    27    28    1
    27    27    29   ar
    28     6     1   ar
    29    29    23   ar
    30    15     9   ar
    31    21    22    1
@<TRIPOS>MOLECULE
*****
 29 31 0 0 0
SMALL
GASTEIGER

@<TRIPOS>ATOM
      1 C         138.4732  143.6277  163.7485 C.ar    1  UNL1        0.1393
      2 C         137.8169  142.3463  163.3275 C.ar    1  UNL1        0.0370
      3 C         138.0049  141.1033  164.1457 C.ar    1  UNL1        0.0063
      4 C         138.8491  141.1417  165.3850 C.ar    1  UNL1        0.0392
      5 C         139.5054  142.4231  165.8060 C.ar    1  UNL1        0.0063
      6 C         139.3174  143.6661  164.9877 C.ar    1  UNL1        0.0370
      7 C         139.0371  139.8986  166.2032 C.2     1  UNL1        0.1961
      8 O         138.1278  138.7229  166.0009 O.2     1  UNL1       -0.2866
      9 C         140.1343  139.8312  167.2238 C.ar    1  UNL1        0.0460
     10 C         139.8395  140.1338  168.6631 C.ar    1  UNL1        0.0151
     11 C         140.9368  140.0664  169.6836 C.ar    1  UNL1        0.0578
     12 CL        140.6420  140.3689  171.1229 Cl      1  UNL1       -0.0822
     13 C         142.3288  139.6965  169.2648 C.ar    1  UNL1        0.0119
     14 C         142.6236  139.3940  167.8255 C.ar    1  UNL1        0.0077
     15 C         141.5264  139.4613  166.8050 C.ar    1  UNL1        0.0377
     16 BR        141.8212  139.1588  165.3657 Br      1  UNL1       -0.0489
     17 O         138.2852  144.8707  162.9302 O.3     1  UNL1       -0.4656
     18 C         139.4521  145.4776  162.2091 C.3     1  UNL1        0.2897
     19 O         141.8495  145.5887  163.2043 O.2     1  UNL1       -0.2707
     20 C         140.8216  144.8863  162.3676 C.2     1  UNL1        0.2707
     21 N         141.1631  143.5927  161.6894 N.am    1  UNL1       -0.2807
     22 H         140.4885  143.1317  161.1402 H       1  UNL1        0.1550
     23 C         142.5325  143.0016  161.8479 C.ar    1  UNL1        0.0558
     24 C         143.5318  143.1149  160.7349 C.ar    1  UNL1        0.0355
     25 C         144.9012  142.5237  160.8933 C.ar    1  UNL1        0.1026
     26 N         145.2714  141.8192  162.1648 N.ar    1  UNL1       -0.2164
     27 C         144.2723  141.7059  163.2778 C.ar    1  UNL1        0.2236
     28 F         144.6425  141.0014  164.5492 F       1  UNL1       -0.1832
     29 C         142.9028  142.2971  163.1193 C.ar    1  UNL1        0.0643
@<TRIPOS>BOND
     1    19    20    2
     2    20    18    1
     3    18    17    1
     4    17     1    1
     5     1     2   ar
     6     2     3   ar
     7     3     4   ar
     8     4     7    1
     9     7     8    2
    10     7     9    1
    11     9    10   ar
    12    10    11   ar
    13    11    12    1
    14    11    13   ar
    15    13    14   ar
    16    14    15   ar
    17    15    16    1
    18     4     5   ar
    19     5     6   ar
    20    20    21   am
    21    21    23    1
    22    23    24   ar
    23    24    25   ar
    24    25    26   ar
    25    26    27   ar
    26    27    28    1
    27    27    29   ar
    28     6     1   ar
    29    29    23   ar
    30    15     9   ar
    31    21    22    1
@<TRIPOS>MOLECULE
*****
 29 31 0 0 0
SMALL
GASTEIGER

@<TRIPOS>ATOM
      1 C         138.6750  143.9008  163.6564 C.ar    1  UNL1        0.1393
      2 C         137.8331  142.7099  163.3058 C.ar    1  UNL1        0.0370
      3 C         137.9456  141.4490  164.1104 C.ar    1  UNL1        0.0063
      4 C         138.9001  141.3789  165.2654 C.ar    1  UNL1        0.0392
      5 C         139.7420  142.5698  165.6159 C.ar    1  UNL1        0.0063
      6 C         139.6294  143.8308  164.8114 C.ar    1  UNL1        0.0370
      7 C         139.0126  140.1179  166.0699 C.2     1  UNL1        0.1961
      8 O         138.0448  138.9946  165.8429 O.2     1  UNL1       -0.2866
      9 C         140.0930  139.9802  167.1014 C.ar    1  UNL1        0.0460
     10 C         139.7933  140.2631  168.5436 C.ar    1  UNL1        0.0151
     11 C         140.8738  140.1254  169.5751 C.ar    1  UNL1        0.0578
     12 CL        140.5741  140.4083  171.0174 Cl      1  UNL1       -0.0822
     13 C         142.2537  139.7048  169.1643 C.ar    1  UNL1        0.0119
     14 C         142.5533  139.4219  167.7220 C.ar    1  UNL1        0.0077
     15 C         141.4730  139.5596  166.6905 C.ar    1  UNL1        0.0377
     16 BR        141.7726  139.2767  165.2482 Br      1  UNL1       -0.0489
     17 O         138.5624  145.1619  162.8518 O.3     1  UNL1       -0.4656
     18 C         139.7640  145.7052  162.1370 C.3     1  UNL1        0.2897
     19 O         139.3117  144.1090  160.1376 O.2     1  UNL1       -0.2707
     20 C         140.1889  145.1119  160.8265 C.2     1  UNL1        0.2707
     21 N         141.4911  145.5216  160.2048 N.am    1  UNL1       -0.2807
     22 H         142.0669  146.1799  160.6569 H       1  UNL1        0.1550
     23 C         141.9160  144.9283  158.8943 C.ar    1  UNL1        0.0558
     24 C         142.6174  143.6027  158.8634 C.ar    1  UNL1        0.0355
     25 C         143.0422  143.0094  157.5529 C.ar    1  UNL1        0.1026
     26 N         142.7658  143.7416  156.2733 N.ar    1  UNL1       -0.2164
     27 C         142.0644  145.0672  156.3042 C.ar    1  UNL1        0.2236
     28 F         141.7879  145.7994  155.0246 F       1  UNL1       -0.1832
     29 C         141.6395  145.6605  157.6147 C.ar    1  UNL1        0.0643
@<TRIPOS>BOND
     1    19    20    2
     2    20    18    1
     3    18    17    1
     4    17     1    1
     5     1     2   ar
     6     2     3   ar
     7     3     4   ar
     8     4     7    1
     9     7     8    2
    10     7     9    1
    11     9    10   ar
    12    10    11   ar
    13    11    12    1
    14    11    13   ar
    15    13    14   ar
    16    14    15   ar
    17    15    16    1
    18     4     5   ar
    19     5     6   ar
    20    20    21   am
    21    21    23    1
    22    23    24   ar
    23    24    25   ar
    24    25    26   ar
    25    26    27   ar
    26    27    28    1
    27    27    29   ar
    28     6     1   ar
    29    29    23   ar
    30    15     9   ar
    31    21    22    1
@<TRIPOS>MOLECULE
*****
 29 31 0 0 0
SMALL
GASTEIGER

@<TRIPOS>ATOM
      1 C         144.9211  141.1765  162.5317 C.ar    1  UNL1        0.1393
      2 C         144.8292  141.8720  163.8575 C.ar    1  UNL1        0.0370
      3 C         144.2669  141.1498  165.0458 C.ar    1  UNL1        0.0063
      4 C         143.7963  139.7321  164.9083 C.ar    1  UNL1        0.0392
      5 C         143.8882  139.0367  163.5825 C.ar    1  UNL1        0.0063
      6 C         144.4505  139.7589  162.3942 C.ar    1  UNL1        0.0370
      7 C         143.2340  139.0099  166.0967 C.2     1  UNL1        0.1961
      8 O         144.0734  138.0070  166.8311 O.2     1  UNL1       -0.2866
      9 C         141.8322  139.2907  166.5506 C.ar    1  UNL1        0.0460
     10 C         140.6736  138.9536  165.6596 C.ar    1  UNL1        0.0151
     11 C         139.2717  139.2344  166.1135 C.ar    1  UNL1        0.0578
     12 CL        138.1131  138.8972  165.2225 Cl      1  UNL1       -0.0822
     13 C         139.0285  139.8522  167.4585 C.ar    1  UNL1        0.0119
     14 C         140.1871  140.1894  168.3496 C.ar    1  UNL1        0.0077
     15 C         141.5889  139.9086  167.8957 C.ar    1  UNL1        0.0377
     16 BR        142.7475  140.2457  168.7868 Br      1  UNL1       -0.0489
     17 O         145.4834  141.8987  161.3433 O.3     1  UNL1       -0.4656
     18 C         144.5748  142.6812  160.4422 C.3     1  UNL1        0.2897
     19 O         142.0114  142.2618  160.4973 O.2     1  UNL1       -0.2707
     20 C         143.2047  143.0701  160.9129 C.2     1  UNL1        0.2707
     21 N         143.0278  144.2672  161.7992 N.am    1  UNL1       -0.2807
     22 H         143.8110  144.7977  162.0720 H       1  UNL1        0.1550
     23 C         141.6577  144.6560  162.2699 C.ar    1  UNL1        0.0558
     24 C         140.7300  145.3936  161.3504 C.ar    1  UNL1        0.0355
     25 C         139.3599  145.7824  161.8211 C.ar    1  UNL1        0.1026
     26 N         138.9175  145.4337  163.2113 N.ar    1  UNL1       -0.2164
     27 C         139.8451  144.6961  164.1308 C.ar    1  UNL1        0.2236
     28 F         139.4026  144.3474  165.5210 F       1  UNL1       -0.1832
     29 C         141.2153  144.3073  163.6601 C.ar    1  UNL1        0.0643
@<TRIPOS>BOND
     1    19    20    2
     2    20    18    1
     3    18    17    1
     4    17     1    1
     5     1     2   ar
     6     2     3   ar
     7     3     4   ar
     8     4     7    1
     9     7     8    2
    10     7     9    1
    11     9    10   ar
    12    10    11   ar
    13    11    12    1
    14    11    13   ar
    15    13    14   ar
    16    14    15   ar
    17    15    16    1
    18     4     5   ar
    19     5     6   ar
    20    20    21   am
    21    21    23    1
    22    23    24   ar
    23    24    25   ar
    24    25    26   ar
    25    26    27   ar
    26    27    28    1
    27    27    29   ar
    28     6     1   ar
    29    29    23   ar
    30    15     9   ar
    31    21    22    1
@<TRIPOS>MOLECULE
*****
 29 31 0 0 0
SMALL
GASTEIGER

@<TRIPOS>ATOM
      1 C         141.3202  138.9468  164.4903 C.ar    1  UNL1        0.1393
      2 C         139.8550  138.9072  164.8093 C.ar    1  UNL1        0.0370
      3 C         138.9247  139.9054  164.1864 C.ar    1  UNL1        0.0063
      4 C         139.4595  140.9432  163.2446 C.ar    1  UNL1        0.0392
      5 C         140.9246  140.9828  162.9257 C.ar    1  UNL1        0.0063
      6 C         141.8550  139.9846  163.5485 C.ar    1  UNL1        0.0370
      7 C         138.5291  141.9414  162.6217 C.2     1  UNL1        0.1961
      8 O         137.0521  141.6804  162.6034 O.2     1  UNL1       -0.2866
      9 C         139.0757  143.2006  162.0171 C.ar    1  UNL1        0.0460
     10 C         139.5098  143.2163  160.5814 C.ar    1  UNL1        0.0151
     11 C         140.0564  144.4756  159.9768 C.ar    1  UNL1        0.0578
     12 CL        140.4905  144.4912  158.5410 Cl      1  UNL1       -0.0822
     13 C         140.1688  145.7192  160.8079 C.ar    1  UNL1        0.0119
     14 C         139.7347  145.7035  162.2436 C.ar    1  UNL1        0.0077
     15 C         139.1881  144.4443  162.8482 C.ar    1  UNL1        0.0377
     16 BR        138.7540  144.4287  164.2839 Br      1  UNL1       -0.0489
     17 O         142.2506  137.9486  165.1133 O.3     1  UNL1       -0.4656
     18 C         143.3379  138.4115  166.0371 C.3     1  UNL1        0.2897
     19 O         143.0420  138.5698  168.6134 O.2     1  UNL1       -0.2707
     20 C         142.9942  139.2116  167.2585 C.2     1  UNL1        0.2707
     21 N         142.6028  140.6534  167.1249 N.am    1  UNL1       -0.2807
     22 H         142.5714  141.0746  166.2357 H       1  UNL1        0.1550
     23 C         142.2591  141.4534  168.3463 C.ar    1  UNL1        0.0558
     24 C         143.3338  142.1967  169.0829 C.ar    1  UNL1        0.0355
     25 C         142.9902  142.9968  170.3043 C.ar    1  UNL1        0.1026
     26 N         141.5718  143.0535  170.7891 N.ar    1  UNL1       -0.2164
     27 C         140.4971  142.3103  170.0526 C.ar    1  UNL1        0.2236
     28 F         139.0788  142.3671  170.5374 F       1  UNL1       -0.1832
     29 C         140.8408  141.5102  168.8311 C.ar    1  UNL1        0.0643
@<TRIPOS>BOND
     1    19    20    2
     2    20    18    1
     3    18    17    1
     4    17     1    1
     5     1     2   ar
     6     2     3   ar
     7     3     4   ar
     8     4     7    1
     9     7     8    2
    10     7     9    1
    11     9    10   ar
    12    10    11   ar
    13    11    12    1
    14    11    13   ar
    15    13    14   ar
    16    14    15   ar
    17    15    16    1
    18     4     5   ar
    19     5     6   ar
    20    20    21   am
    21    21    23    1
    22    23    24   ar
    23    24    25   ar
    24    25    26   ar
    25    26    27   ar
    26    27    28    1
    27    27    29   ar
    28     6     1   ar
    29    29    23   ar
    30    15     9   ar
    31    21    22    1
@<TRIPOS>MOLECULE
*****
 29 31 0 0 0
SMALL
GASTEIGER

@<TRIPOS>ATOM
      1 C         144.5996  141.5113  162.7785 C.ar    1  UNL1        0.1393
      2 C         144.4558  140.0241  162.6463 C.ar    1  UNL1        0.0370
      3 C         144.0344  139.2034  163.8290 C.ar    1  UNL1        0.0063
      4 C         143.7569  139.8698  165.1439 C.ar    1  UNL1        0.0392
      5 C         143.9008  141.3570  165.2760 C.ar    1  UNL1        0.0063
      6 C         144.3221  142.1778  164.0934 C.ar    1  UNL1        0.0370
      7 C         143.3355  139.0490  166.3266 C.2     1  UNL1        0.1961
      8 O         144.0105  137.7397  166.6096 O.2     1  UNL1       -0.2866
      9 C         142.2391  139.5374  167.2262 C.ar    1  UNL1        0.0460
     10 C         142.5614  140.0107  168.6126 C.ar    1  UNL1        0.0151
     11 C         141.4650  140.4992  169.5122 C.ar    1  UNL1        0.0578
     12 CL        141.7873  140.9725  170.8986 Cl      1  UNL1       -0.0822
     13 C         140.0463  140.5143  169.0254 C.ar    1  UNL1        0.0119
     14 C         139.7239  140.0410  167.6390 C.ar    1  UNL1        0.0077
     15 C         140.8203  139.5526  166.7394 C.ar    1  UNL1        0.0377
     16 BR        140.4980  139.0793  165.3530 Br      1  UNL1       -0.0489
     17 O         145.0210  142.3322  161.5958 O.3     1  UNL1       -0.4656
     18 C         143.9995  142.7857  160.5954 C.3     1  UNL1        0.2897
     19 O         142.2682  144.7172  160.7432 O.2     1  UNL1       -0.2707
     20 C         142.6733  143.3086  161.0621 C.2     1  UNL1        0.2707
     21 N         141.7522  142.4229  161.8476 N.am    1  UNL1       -0.2807
     22 H         142.0181  141.4984  162.0569 H       1  UNL1        0.1550
     23 C         140.4261  142.9458  162.3143 C.ar    1  UNL1        0.0558
     24 C         139.1699  142.5544  161.5939 C.ar    1  UNL1        0.0355
     25 C         137.8437  143.0773  162.0605 C.ar    1  UNL1        0.1026
     26 N         137.7736  143.9917  163.2475 N.ar    1  UNL1       -0.2164
     27 C         139.0297  144.3831  163.9679 C.ar    1  UNL1        0.2236
     28 F         138.9596  145.2975  165.1549 F       1  UNL1       -0.1832
     29 C         140.3560  143.8602  163.5013 C.ar    1  UNL1        0.0643
@<TRIPOS>BOND
     1    19    20    2
     2    20    18    1
     3    18    17    1
     4    17     1    1
     5     1     2   ar
     6     2     3   ar
     7     3     4   ar
     8     4     7    1
     9     7     8    2
    10     7     9    1
    11     9    10   ar
    12    10    11   ar
    13    11    12    1
    14    11    13   ar
    15    13    14   ar
    16    14    15   ar
    17    15    16    1
    18     4     5   ar
    19     5     6   ar
    20    20    21   am
    21    21    23    1
    22    23    24   ar
    23    24    25   ar
    24    25    26   ar
    25    26    27   ar
    26    27    28    1
    27    27    29   ar
    28     6     1   ar
    29    29    23   ar
    30    15     9   ar
    31    21    22    1
@<TRIPOS>MOLECULE
*****
 29 31 0 0 0
SMALL
GASTEIGER

@<TRIPOS>ATOM
      1 C         138.9460  144.2499  163.7645 C.ar    1  UNL1        0.1393
      2 C         137.8922  143.2094  163.5262 C.ar    1  UNL1        0.0370
      3 C         137.9557  141.8980  164.2514 C.ar    1  UNL1        0.0063
      4 C         139.0729  141.6270  165.2149 C.ar    1  UNL1        0.0392
      5 C         140.1267  142.6675  165.4532 C.ar    1  UNL1        0.0063
      6 C         140.0633  143.9789  164.7280 C.ar    1  UNL1        0.0370
      7 C         139.1363  140.3154  165.9401 C.2     1  UNL1        0.1961
      8 O         138.1625  139.2250  165.6044 O.2     1  UNL1       -0.2866
      9 C         140.1735  140.0943  167.0009 C.ar    1  UNL1        0.0460
     10 C         139.8576  140.4023  168.4345 C.ar    1  UNL1        0.0151
     11 C         140.8949  140.1812  169.4953 C.ar    1  UNL1        0.0578
     12 CL        140.5789  140.4891  170.9289 Cl      1  UNL1       -0.0822
     13 C         142.2480  139.6521  169.1224 C.ar    1  UNL1        0.0119
     14 C         142.5639  139.3442  167.6888 C.ar    1  UNL1        0.0077
     15 C         141.5268  139.5652  166.6280 C.ar    1  UNL1        0.0377
     16 BR        141.8427  139.2573  165.1944 Br      1  UNL1       -0.0489
     17 O         138.8826  145.5615  163.0393 O.3     1  UNL1       -0.4656
     18 C         139.9736  145.9435  162.0833 C.3     1  UNL1        0.2897
     19 O         139.4895  144.1302  160.2867 O.2     1  UNL1       -0.2707
     20 C         140.4682  144.9501  161.0741 C.2     1  UNL1        0.2707
     21 N         141.9415  144.7766  160.8521 N.am    1  UNL1       -0.2807
     22 H         142.5839  145.3148  161.3689 H       1  UNL1        0.1550
     23 C         142.4361  143.7833  159.8429 C.ar    1  UNL1        0.0558
     24 C         142.4451  144.1364  158.3850 C.ar    1  UNL1        0.0355
     25 C         142.9397  143.1431  157.3758 C.ar    1  UNL1        0.1026
     26 N         143.4252  141.7966  157.8243 N.ar    1  UNL1       -0.2164
     27 C         143.4162  141.4434  159.2821 C.ar    1  UNL1        0.2236
     28 F         143.9018  140.0970  159.7306 F       1  UNL1       -0.1832
     29 C         142.9216  142.4368  160.2914 C.ar    1  UNL1        0.0643
@<TRIPOS>BOND
     1    19    20    2
     2    20    18    1
     3    18    17    1
     4    17     1    1
     5     1     2   ar
     6     2     3   ar
     7     3     4   ar
     8     4     7    1
     9     7     8    2
    10     7     9    1
    11     9    10   ar
    12    10    11   ar
    13    11    12    1
    14    11    13   ar
    15    13    14   ar
    16    14    15   ar
    17    15    16    1
    18     4     5   ar
    19     5     6   ar
    20    20    21   am
    21    21    23    1
    22    23    24   ar
    23    24    25   ar
    24    25    26   ar
    25    26    27   ar
    26    27    28    1
    27    27    29   ar
    28     6     1   ar
    29    29    23   ar
    30    15     9   ar
    31    21    22    1
@<TRIPOS>MOLECULE
*****
 29 31 0 0 0
SMALL
GASTEIGER

@<TRIPOS>ATOM
      1 C         139.3602  137.9033  164.5513 C.ar    1  UNL1        0.1393
      2 C         139.0417  138.7572  163.3600 C.ar    1  UNL1        0.0370
      3 C         140.0780  138.9806  162.2988 C.ar    1  UNL1        0.0063
      4 C         141.4327  138.3499  162.4289 C.ar    1  UNL1        0.0392
      5 C         141.7512  137.4959  163.6202 C.ar    1  UNL1        0.0063
      6 C         140.7149  137.2726  164.6814 C.ar    1  UNL1        0.0370
      7 C         142.4690  138.5733  161.3676 C.2     1  UNL1        0.1961
      8 O         142.7328  137.5113  160.3416 O.2     1  UNL1       -0.2866
      9 C         143.2415  139.8585  161.3324 C.ar    1  UNL1        0.0460
     10 C         144.2349  140.1664  162.4132 C.ar    1  UNL1        0.0151
     11 C         145.0074  141.4518  162.3779 C.ar    1  UNL1        0.0578
     12 CL        146.0009  141.7597  163.4588 Cl      1  UNL1       -0.0822
     13 C         144.7865  142.4292  161.2618 C.ar    1  UNL1        0.0119
     14 C         143.7931  142.1213  160.1809 C.ar    1  UNL1        0.0077
     15 C         143.0206  140.8360  160.2161 C.ar    1  UNL1        0.0377
     16 BR        142.0272  140.5281  159.1353 Br      1  UNL1       -0.0489
     17 O         138.3239  137.6799  165.6126 O.3     1  UNL1       -0.4656
     18 C         137.8724  138.8231  166.4724 C.3     1  UNL1        0.2897
     19 O         139.8692  140.4822  166.5726 O.2     1  UNL1       -0.2707
     20 C         138.8749  139.6026  167.2709 C.2     1  UNL1        0.2707
     21 N         138.8831  139.5024  168.7675 N.am    1  UNL1       -0.2807
     22 H         138.2305  138.9250  169.2258 H       1  UNL1        0.1550
     23 C         139.8856  140.2819  169.5658 C.ar    1  UNL1        0.0558
     24 C         139.5593  141.6710  170.0283 C.ar    1  UNL1        0.0355
     25 C         140.5618  142.4505  170.8267 C.ar    1  UNL1        0.1026
     26 N         141.8905  141.8409  171.1626 N.ar    1  UNL1       -0.2164
     27 C         142.2168  140.4518  170.7002 C.ar    1  UNL1        0.2236
     28 F         143.5455  139.8422  171.0361 F       1  UNL1       -0.1832
     29 C         141.2143  139.6722  169.9018 C.ar    1  UNL1        0.0643
@<TRIPOS>BOND
     1    19    20    2
     2    20    18    1
     3    18    17    1
     4    17     1    1
     5     1     2   ar
     6     2     3   ar
     7     3     4   ar
     8     4     7    1
     9     7     8    2
    10     7     9    1
    11     9    10   ar
    12    10    11   ar
    13    11    12    1
    14    11    13   ar
    15    13    14   ar
    16    14    15   ar
    17    15    16    1
    18     4     5   ar
    19     5     6   ar
    20    20    21   am
    21    21    23    1
    22    23    24   ar
    23    24    25   ar
    24    25    26   ar
    25    26    27   ar
    26    27    28    1
    27    27    29   ar
    28     6     1   ar
    29    29    23   ar
    30    15     9   ar
    31    21    22    1
@<TRIPOS>MOLECULE
*****
 29 31 0 0 0
SMALL
GASTEIGER

@<TRIPOS>ATOM
      1 C         138.6382  144.2305  163.3800 C.ar    1  UNL1        0.1393
      2 C         137.8281  143.0242  163.0078 C.ar    1  UNL1        0.0370
      3 C         137.9618  141.7576  163.8000 C.ar    1  UNL1        0.0063
      4 C         138.9055  141.6972  164.9644 C.ar    1  UNL1        0.0392
      5 C         139.7155  142.9036  165.3366 C.ar    1  UNL1        0.0063
      6 C         139.5819  144.1702  164.5444 C.ar    1  UNL1        0.0370
      7 C         139.0391  140.4305  165.7567 C.2     1  UNL1        0.1961
      8 O         137.8403  139.5579  165.9836 O.2     1  UNL1       -0.2866
      9 C         140.3714  140.0364  166.3220 C.ar    1  UNL1        0.0460
     10 C         141.4825  139.6213  165.4039 C.ar    1  UNL1        0.0151
     11 C         142.8149  139.2272  165.9692 C.ar    1  UNL1        0.0578
     12 CL        143.9261  138.8121  165.0511 Cl      1  UNL1       -0.0822
     13 C         143.0361  139.2483  167.4527 C.ar    1  UNL1        0.0119
     14 C         141.9249  139.6635  168.3708 C.ar    1  UNL1        0.0077
     15 C         140.5926  140.0575  167.8055 C.ar    1  UNL1        0.0377
     16 BR        139.4814  140.4727  168.7236 Br      1  UNL1       -0.0489
     17 O         138.5046  145.4973  162.5877 O.3     1  UNL1       -0.4656
     18 C         139.6255  145.9475  161.6985 C.3     1  UNL1        0.2897
     19 O         139.3752  144.0491  159.9424 O.2     1  UNL1       -0.2707
     20 C         140.2445  144.9865  160.7271 C.2     1  UNL1        0.2707
     21 N         141.7326  144.9630  160.5404 N.am    1  UNL1       -0.2807
     22 H         142.3031  145.5783  161.0554 H       1  UNL1        0.1550
     23 C         142.3515  144.0021  159.5690 C.ar    1  UNL1        0.0558
     24 C         142.4038  144.3412  158.1087 C.ar    1  UNL1        0.0355
     25 C         143.0227  143.3803  157.1374 C.ar    1  UNL1        0.1026
     26 N         143.5892  142.0803  157.6262 N.ar    1  UNL1       -0.2164
     27 C         143.5369  141.7411  159.0864 C.ar    1  UNL1        0.2236
     28 F         144.1034  140.4411  159.5752 F       1  UNL1       -0.1832
     29 C         142.9180  142.7021  160.0578 C.ar    1  UNL1        0.0643
@<TRIPOS>BOND
     1    19    20    2
     2    20    18    1
     3    18    17    1
     4    17     1    1
     5     1     2   ar
     6     2     3   ar
     7     3     4   ar
     8     4     7    1
     9     7     8    2
    10     7     9    1
    11     9    10   ar
    12    10    11   ar
    13    11    12    1
    14    11    13   ar
    15    13    14   ar
    16    14    15   ar
    17    15    16    1
    18     4     5   ar
    19     5     6   ar
    20    20    21   am
    21    21    23    1
    22    23    24   ar
    23    24    25   ar
    24    25    26   ar
    25    26    27   ar
    26    27    28    1
    27    27    29   ar
    28     6     1   ar
    29    29    23   ar
    30    15     9   ar
    31    21    22    1
