@<TRIPOS>MOLECULE
*****
 39 42 0 0 0
SMALL
GASTEIGER

@<TRIPOS>ATOM
      1 C         141.3839  141.7519  163.0911 C.3     1  UNL1        0.1031
      2 C         140.9871  145.0828  160.9704 C.ar    1  UNL1        0.0529
      3 C         139.9217  145.7919  161.7528 C.ar    1  UNL1        0.0147
      4 C         139.3438  145.1543  162.9814 C.ar    1  UNL1        0.0010
      5 C         139.8311  143.8076  163.4275 C.ar    1  UNL1       -0.0026
      6 C         140.8964  143.0986  162.6450 C.ar    1  UNL1       -0.0024
      7 C         141.4744  143.7362  161.4165 C.ar    1  UNL1        0.0121
      8 C         141.0022  145.3918  158.3908 C.2     1  UNL1        0.4054
      9 O         139.8614  144.4255  158.2683 O.2     1  UNL1       -0.2261
     10 N         141.5650  145.7204  159.7418 N.am    1  UNL1       -0.2499
     11 H         142.3137  146.3546  159.8221 H       1  UNL1        0.1582
     12 O         141.5802  146.0294  157.1622 O.3     1  UNL1       -0.4345
     13 C         139.4904  147.0773  156.0287 C.3     1  UNL1        0.0513
     14 C         140.7239  146.2277  155.9466 C.3     1  UNL1        0.2102
     15 C         141.5634  141.4656  164.5525 C.ar    1  UNL1       -0.0036
     16 C         142.5765  142.2339  165.3484 C.ar    1  UNL1       -0.0025
     17 C         142.7560  141.9475  166.8099 C.ar    1  UNL1        0.0042
     18 C         141.9225  140.8929  167.4754 C.ar    1  UNL1        0.0536
     19 C         140.9094  140.1246  166.6795 C.ar    1  UNL1        0.0042
     20 C         140.7299  140.4109  165.2181 C.ar    1  UNL1       -0.0025
     21 C         142.1021  140.6065  168.9368 C.2     1  UNL1        0.2491
     22 O         143.1030  139.5823  169.3830 O.2     1  UNL1       -0.2699
     23 N         141.2807  141.3444  169.9521 N.am    1  UNL1       -0.2743
     24 C         141.4603  141.0581  171.4136 C.3     1  UNL1        0.1152
     25 C         140.2797  142.3687  169.5060 C.3     1  UNL1        0.0938
     26 C         140.5070  143.8204  169.8074 C.3     1  UNL1        0.0233
     27 N         141.6917  140.6916  162.0758 N.3     1  UNL1       -0.2644
     28 C         143.1100  140.2595  161.8491 C.3     1  UNL1        0.0901
     29 C         143.4179  139.1992  160.8337 C.3     1  UNL1        0.0900
     30 N         142.3073  138.5710  160.0450 N.3     1  UNL1       -0.2655
     31 C         140.8889  139.0031  160.2717 C.3     1  UNL1        0.0900
     32 C         140.5810  140.0634  161.2871 C.3     1  UNL1        0.0901
     33 C         142.6152  137.5107  159.0296 C.3     1  UNL1        0.1162
     34 C         143.0152  137.8993  157.6372 C.2     1  UNL1        0.0769
     35 N         143.5788  139.2251  157.2193 N.2     1  UNL1       -0.2297
     36 C         143.8339  139.1755  155.7420 C.2     1  UNL1        0.1939
     37 N         143.4279  137.8190  155.2468 N.2     1  UNL1       -0.2464
     38 C         142.9219  137.0303  156.4181 C.3     1  UNL1        0.1420
     39 C         142.4122  135.6201  156.3775 C.3     1  UNL1        0.0326
@<TRIPOS>BOND
     1    13    14    1
     2    14    12    1
     3    12     8    1
     4     8     9    2
     5     8    10   am
     6    10     2    1
     7     2     3   ar
     8     3     4   ar
     9     4     5   ar
    10     5     6   ar
    11     6     1    1
    12     1    15    1
    13    15    16   ar
    14    16    17   ar
    15    17    18   ar
    16    18    21    1
    17    21    22    2
    18    21    23   am
    19    23    24    1
    20    23    25    1
    21    25    26    1
    22    18    19   ar
    23    19    20   ar
    24     1    27    1
    25    27    28    1
    26    28    29    1
    27    29    30    1
    28    30    33    1
    29    33    34    1
    30    34    35    2
    31    35    36    1
    32    36    37    2
    33    37    38    1
    34    38    39    1
    35    30    31    1
    36    31    32    1
    37     6     7   ar
    38     7     2   ar
    39    20    15   ar
    40    32    27    1
    41    38    34    1
    42    10    11    1
@<TRIPOS>MOLECULE
*****
 39 42 0 0 0
SMALL
GASTEIGER

@<TRIPOS>ATOM
      1 C         141.1000  139.0459  158.3065 C.3     1  UNL1        0.1031
      2 C         140.1648  142.8930  158.5812 C.ar    1  UNL1        0.0529
      3 C         140.7574  143.4204  157.3082 C.ar    1  UNL1        0.0147
      4 C         141.4642  142.4896  156.3679 C.ar    1  UNL1        0.0010
      5 C         141.5784  141.0315  156.7007 C.ar    1  UNL1       -0.0026
      6 C         140.9858  140.5041  157.9737 C.ar    1  UNL1       -0.0024
      7 C         140.2790  141.4348  158.9140 C.ar    1  UNL1        0.0121
      8 C         140.2335  144.8710  160.2642 C.2     1  UNL1        0.4054
      9 O         141.7159  144.9877  160.0667 O.2     1  UNL1       -0.2261
     10 N         139.4580  143.8237  159.5215 N.am    1  UNL1       -0.2499
     11 H         138.4851  143.7472  159.6512 H       1  UNL1        0.1582
     12 O         139.5267  145.8018  161.2045 O.3     1  UNL1       -0.4345
     13 C         138.1517  144.4038  162.9090 C.3     1  UNL1        0.0513
     14 C         139.2552  145.3770  162.6173 C.3     1  UNL1        0.2102
     15 C         141.2594  138.0363  157.2086 C.ar    1  UNL1       -0.0036
     16 C         142.6241  137.5270  156.8505 C.ar    1  UNL1       -0.0025
     17 C         142.7835  136.5174  155.7526 C.ar    1  UNL1        0.0042
     18 C         141.5783  136.0171  155.0129 C.ar    1  UNL1        0.0536
     19 C         140.2136  136.5264  155.3711 C.ar    1  UNL1        0.0042
     20 C         140.0541  137.5360  156.4689 C.ar    1  UNL1       -0.0025
     21 C         141.7377  135.0075  153.9151 C.2     1  UNL1        0.2491
     22 O         141.8850  135.4625  152.4933 O.2     1  UNL1       -0.2699
     23 N         141.7499  133.5429  154.2389 N.am    1  UNL1       -0.2743
     24 C         141.9093  132.5334  153.1410 C.3     1  UNL1        0.1152
     25 C         141.6026  133.0880  155.6606 C.3     1  UNL1        0.0938
     26 C         142.8203  132.7639  156.4744 C.3     1  UNL1        0.0233
     27 N         141.0547  138.5973  159.7371 N.3     1  UNL1       -0.2644
     28 C         142.3302  138.3854  160.4974 C.3     1  UNL1        0.0901
     29 C         142.2849  137.9369  161.9280 C.3     1  UNL1        0.0900
     30 N         140.9641  137.7003  162.5984 N.3     1  UNL1       -0.2655
     31 C         139.6885  137.9122  161.8381 C.3     1  UNL1        0.0900
     32 C         139.7338  138.3607  160.4075 C.3     1  UNL1        0.0901
     33 C         140.9188  137.2517  164.0291 C.3     1  UNL1        0.1162
     34 C         140.0278  137.9568  165.0083 C.2     1  UNL1        0.0769
     35 N         138.6356  137.5466  165.3873 N.2     1  UNL1       -0.2297
     36 C         138.1198  138.5321  166.3937 C.2     1  UNL1        0.1939
     37 N         139.1933  139.5514  166.6366 N.2     1  UNL1       -0.2464
     38 C         140.3724  139.1958  165.7803 C.3     1  UNL1        0.1420
     39 C         141.6686  139.9472  165.7088 C.3     1  UNL1        0.0326
@<TRIPOS>BOND
     1    13    14    1
     2    14    12    1
     3    12     8    1
     4     8     9    2
     5     8    10   am
     6    10     2    1
     7     2     3   ar
     8     3     4   ar
     9     4     5   ar
    10     5     6   ar
    11     6     1    1
    12     1    15    1
    13    15    16   ar
    14    16    17   ar
    15    17    18   ar
    16    18    21    1
    17    21    22    2
    18    21    23   am
    19    23    24    1
    20    23    25    1
    21    25    26    1
    22    18    19   ar
    23    19    20   ar
    24     1    27    1
    25    27    28    1
    26    28    29    1
    27    29    30    1
    28    30    33    1
    29    33    34    1
    30    34    35    2
    31    35    36    1
    32    36    37    2
    33    37    38    1
    34    38    39    1
    35    30    31    1
    36    31    32    1
    37     6     7   ar
    38     7     2   ar
    39    20    15   ar
    40    32    27    1
    41    38    34    1
    42    10    11    1
@<TRIPOS>MOLECULE
*****
 39 42 0 0 0
SMALL
GASTEIGER

@<TRIPOS>ATOM
      1 C         142.0748  138.6957  158.4154 C.3     1  UNL1        0.1031
      2 C         143.7057  142.2202  159.2328 C.ar    1  UNL1        0.0529
      3 C         144.6858  142.3475  158.1045 C.ar    1  UNL1        0.0147
      4 C         144.7956  141.2576  157.0798 C.ar    1  UNL1        0.0010
      5 C         143.9253  140.0403  157.1834 C.ar    1  UNL1       -0.0026
      6 C         142.9452  139.9130  158.3117 C.ar    1  UNL1       -0.0024
      7 C         142.8354  141.0029  159.3364 C.ar    1  UNL1        0.0121
      8 C         144.4213  143.2494  161.5084 C.2     1  UNL1        0.4054
      9 O         145.3567  142.0987  161.7347 O.2     1  UNL1       -0.2261
     10 N         143.5959  143.3102  160.2574 N.am    1  UNL1       -0.2499
     11 H         142.9820  144.0654  160.1089 H       1  UNL1        0.1582
     12 O         144.3115  144.3394  162.5331 O.3     1  UNL1       -0.4345
     13 C         142.8825  142.9593  164.2075 C.3     1  UNL1        0.0513
     14 C         143.9234  144.0067  163.9433 C.3     1  UNL1        0.2102
     15 C         141.9711  137.7471  157.2581 C.ar    1  UNL1       -0.0036
     16 C         143.0392  136.7180  157.0338 C.ar    1  UNL1       -0.0025
     17 C         142.9354  135.7694  155.8765 C.ar    1  UNL1        0.0042
     18 C         141.7637  135.8498  154.9435 C.ar    1  UNL1        0.0536
     19 C         140.6956  136.8788  155.1678 C.ar    1  UNL1        0.0042
     20 C         140.7993  137.8274  156.3251 C.ar    1  UNL1       -0.0025
     21 C         141.6600  134.9012  153.7863 C.2     1  UNL1        0.2491
     22 O         141.8013  135.4118  152.3829 O.2     1  UNL1       -0.2699
     23 N         141.4150  133.4419  154.0323 N.am    1  UNL1       -0.2743
     24 C         141.3113  132.4933  152.8749 C.3     1  UNL1        0.1152
     25 C         141.2737  132.9313  155.4355 C.3     1  UNL1        0.0938
     26 C         142.3479  132.0711  156.0324 C.3     1  UNL1        0.0233
     27 N         141.3081  138.4271  159.6764 N.3     1  UNL1       -0.2644
     28 C         139.8265  138.6571  159.7167 C.3     1  UNL1        0.0901
     29 C         139.0598  138.3885  160.9777 C.3     1  UNL1        0.0900
     30 N         139.7748  137.8899  162.1984 N.3     1  UNL1       -0.2655
     31 C         141.2566  137.6598  162.1581 C.3     1  UNL1        0.0900
     32 C         142.0233  137.9284  160.8971 C.3     1  UNL1        0.0901
     33 C         139.0082  137.6212  163.4594 C.3     1  UNL1        0.1162
     34 C         139.0585  138.6040  164.5914 C.2     1  UNL1        0.0769
     35 N         139.6917  139.9632  164.5516 N.2     1  UNL1       -0.2297
     36 C         139.5089  140.5994  165.8977 C.2     1  UNL1        0.1939
     37 N         138.7627  139.6333  166.7694 N.2     1  UNL1       -0.2464
     38 C         138.4843  138.4001  165.9621 C.3     1  UNL1        0.1420
     39 C         137.7591  137.1777  166.4414 C.3     1  UNL1        0.0326
@<TRIPOS>BOND
     1    13    14    1
     2    14    12    1
     3    12     8    1
     4     8     9    2
     5     8    10   am
     6    10     2    1
     7     2     3   ar
     8     3     4   ar
     9     4     5   ar
    10     5     6   ar
    11     6     1    1
    12     1    15    1
    13    15    16   ar
    14    16    17   ar
    15    17    18   ar
    16    18    21    1
    17    21    22    2
    18    21    23   am
    19    23    24    1
    20    23    25    1
    21    25    26    1
    22    18    19   ar
    23    19    20   ar
    24     1    27    1
    25    27    28    1
    26    28    29    1
    27    29    30    1
    28    30    33    1
    29    33    34    1
    30    34    35    2
    31    35    36    1
    32    36    37    2
    33    37    38    1
    34    38    39    1
    35    30    31    1
    36    31    32    1
    37     6     7   ar
    38     7     2   ar
    39    20    15   ar
    40    32    27    1
    41    38    34    1
    42    10    11    1
@<TRIPOS>MOLECULE
*****
 39 42 0 0 0
SMALL
GASTEIGER

@<TRIPOS>ATOM
      1 C         144.2014  142.4771  158.9349 C.3     1  UNL1        0.1031
      2 C         141.1834  144.9576  159.6344 C.ar    1  UNL1        0.0529
      3 C         140.8856  145.4404  158.2458 C.ar    1  UNL1        0.0147
      4 C         141.6930  144.9354  157.0869 C.ar    1  UNL1        0.0010
      5 C         142.7982  143.9476  157.3166 C.ar    1  UNL1       -0.0026
      6 C         143.0961  143.4649  158.7052 C.ar    1  UNL1       -0.0024
      7 C         142.2887  143.9699  159.8641 C.ar    1  UNL1        0.0121
      8 C         139.2298  144.6506  161.3194 C.2     1  UNL1        0.4054
      9 O         138.8910  143.3335  160.6865 O.2     1  UNL1       -0.2261
     10 N         140.3760  145.4626  160.7933 N.am    1  UNL1       -0.2499
     11 H         140.5984  146.3271  161.2087 H       1  UNL1        0.1582
     12 O         138.4224  145.1556  162.4783 O.3     1  UNL1       -0.4345
     13 C         137.9004  143.2569  164.1731 C.3     1  UNL1        0.0513
     14 C         138.5954  144.5429  163.8365 C.3     1  UNL1        0.2102
     15 C         145.3293  142.3717  157.9518 C.ar    1  UNL1       -0.0036
     16 C         146.6148  143.1023  158.2040 C.ar    1  UNL1       -0.0025
     17 C         147.7428  142.9968  157.2208 C.ar    1  UNL1        0.0042
     18 C         147.5853  142.1607  155.9855 C.ar    1  UNL1        0.0536
     19 C         146.2998  141.4300  155.7334 C.ar    1  UNL1        0.0042
     20 C         145.1718  141.5355  156.7165 C.ar    1  UNL1       -0.0025
     21 C         148.7132  142.0552  155.0024 C.2     1  UNL1        0.2491
     22 O         149.7941  141.0355  155.2076 O.2     1  UNL1       -0.2699
     23 N         148.7604  142.9695  153.8142 N.am    1  UNL1       -0.2743
     24 C         149.8885  142.8639  152.8310 C.3     1  UNL1        0.1152
     25 C         147.6797  143.9892  153.6090 C.3     1  UNL1        0.0938
     26 C         146.5541  143.7082  152.6581 C.3     1  UNL1        0.0233
     27 N         144.1786  141.5949  160.1478 N.3     1  UNL1       -0.2644
     28 C         143.4402  140.2897  160.1121 C.3     1  UNL1        0.0901
     29 C         143.4174  139.4075  161.3250 C.3     1  UNL1        0.0900
     30 N         144.1331  139.8303  162.5736 N.3     1  UNL1       -0.2655
     31 C         144.8716  141.1355  162.6093 C.3     1  UNL1        0.0900
     32 C         144.8943  142.0178  161.3964 C.3     1  UNL1        0.0901
     33 C         144.1103  138.9481  163.7865 C.3     1  UNL1        0.1162
     34 C         143.0350  139.1189  164.8181 C.2     1  UNL1        0.0769
     35 N         143.0800  140.0507  165.9927 N.2     1  UNL1       -0.2297
     36 C         141.7986  139.8956  166.7568 C.2     1  UNL1        0.1939
     37 N         140.9616  138.8679  166.0544 N.2     1  UNL1       -0.2464
     38 C         141.7257  138.3879  164.8562 C.3     1  UNL1        0.1420
     39 C         141.2620  137.3578  163.8694 C.3     1  UNL1        0.0326
@<TRIPOS>BOND
     1    13    14    1
     2    14    12    1
     3    12     8    1
     4     8     9    2
     5     8    10   am
     6    10     2    1
     7     2     3   ar
     8     3     4   ar
     9     4     5   ar
    10     5     6   ar
    11     6     1    1
    12     1    15    1
    13    15    16   ar
    14    16    17   ar
    15    17    18   ar
    16    18    21    1
    17    21    22    2
    18    21    23   am
    19    23    24    1
    20    23    25    1
    21    25    26    1
    22    18    19   ar
    23    19    20   ar
    24     1    27    1
    25    27    28    1
    26    28    29    1
    27    29    30    1
    28    30    33    1
    29    33    34    1
    30    34    35    2
    31    35    36    1
    32    36    37    2
    33    37    38    1
    34    38    39    1
    35    30    31    1
    36    31    32    1
    37     6     7   ar
    38     7     2   ar
    39    20    15   ar
    40    32    27    1
    41    38    34    1
    42    10    11    1
@<TRIPOS>MOLECULE
*****
 39 42 0 0 0
SMALL
GASTEIGER

@<TRIPOS>ATOM
      1 C         141.6509  141.6927  162.4479 C.3     1  UNL1        0.1031
      2 C         140.2312  144.7687  160.3808 C.ar    1  UNL1        0.0529
      3 C         140.1615  145.8198  161.4486 C.ar    1  UNL1        0.0147
      4 C         140.5884  145.4953  162.8495 C.ar    1  UNL1        0.0010
      5 C         141.0848  144.1196  163.1826 C.ar    1  UNL1       -0.0026
      6 C         141.1544  143.0685  162.1148 C.ar    1  UNL1       -0.0024
      7 C         140.7276  143.3930  160.7139 C.ar    1  UNL1        0.0121
      8 C         140.7968  145.6523  158.0040 C.2     1  UNL1        0.4054
      9 O         142.2161  145.8868  158.4290 O.2     1  UNL1       -0.2261
     10 N         139.8043  145.0932  158.9799 N.am    1  UNL1       -0.2499
     11 H         138.8728  144.9393  158.7010 H       1  UNL1        0.1582
     12 O         140.3700  145.9769  156.6031 O.3     1  UNL1       -0.4345
     13 C         138.2241  145.8059  155.1485 C.3     1  UNL1        0.0513
     14 C         139.3224  145.1435  155.9262 C.3     1  UNL1        0.2102
     15 C         141.8770  141.3029  163.8785 C.ar    1  UNL1       -0.0036
     16 C         143.2157  141.5312  164.5155 C.ar    1  UNL1       -0.0025
     17 C         143.4418  141.1414  165.9463 C.ar    1  UNL1        0.0042
     18 C         142.3292  140.5233  166.7400 C.ar    1  UNL1        0.0536
     19 C         140.9905  140.2950  166.1030 C.ar    1  UNL1        0.0042
     20 C         140.7644  140.6848  164.6724 C.ar    1  UNL1       -0.0025
     21 C         142.5554  140.1335  168.1707 C.2     1  UNL1        0.2491
     22 O         143.0591  138.7603  168.5033 O.2     1  UNL1       -0.2699
     23 N         142.2777  141.1169  169.2688 N.am    1  UNL1       -0.2743
     24 C         142.5039  140.7270  170.6995 C.3     1  UNL1        0.1152
     25 C         141.7740  142.4900  168.9363 C.3     1  UNL1        0.0938
     26 C         140.3183  142.8142  169.0970 C.3     1  UNL1        0.0233
     27 N         141.9212  140.7068  161.3502 N.3     1  UNL1       -0.2644
     28 C         140.8575  139.7327  160.9382 C.3     1  UNL1        0.0901
     29 C         141.1278  138.7468  159.8405 C.3     1  UNL1        0.0900
     30 N         142.4618  138.7349  159.1548 N.3     1  UNL1       -0.2655
     31 C         143.5256  139.7090  159.5668 C.3     1  UNL1        0.0900
     32 C         143.2553  140.6949  160.6645 C.3     1  UNL1        0.0901
     33 C         142.7321  137.7490  158.0572 C.3     1  UNL1        0.1162
     34 C         142.9929  138.2332  156.6616 C.2     1  UNL1        0.0769
     35 N         144.3052  138.1712  155.9377 N.2     1  UNL1       -0.2297
     36 C         144.1105  138.7640  154.5736 C.2     1  UNL1        0.1939
     37 N         142.6779  139.1924  154.4546 N.2     1  UNL1       -0.2464
     38 C         141.9872  138.8642  155.7450 C.3     1  UNL1        0.1420
     39 C         140.5441  139.1220  156.0629 C.3     1  UNL1        0.0326
@<TRIPOS>BOND
     1    13    14    1
     2    14    12    1
     3    12     8    1
     4     8     9    2
     5     8    10   am
     6    10     2    1
     7     2     3   ar
     8     3     4   ar
     9     4     5   ar
    10     5     6   ar
    11     6     1    1
    12     1    15    1
    13    15    16   ar
    14    16    17   ar
    15    17    18   ar
    16    18    21    1
    17    21    22    2
    18    21    23   am
    19    23    24    1
    20    23    25    1
    21    25    26    1
    22    18    19   ar
    23    19    20   ar
    24     1    27    1
    25    27    28    1
    26    28    29    1
    27    29    30    1
    28    30    33    1
    29    33    34    1
    30    34    35    2
    31    35    36    1
    32    36    37    2
    33    37    38    1
    34    38    39    1
    35    30    31    1
    36    31    32    1
    37     6     7   ar
    38     7     2   ar
    39    20    15   ar
    40    32    27    1
    41    38    34    1
    42    10    11    1
@<TRIPOS>MOLECULE
*****
 39 42 0 0 0
SMALL
GASTEIGER

@<TRIPOS>ATOM
      1 C         141.0230  139.2310  158.3569 C.3     1  UNL1        0.1031
      2 C         140.2023  143.1022  158.0563 C.ar    1  UNL1        0.0529
      3 C         140.7898  143.4129  156.7116 C.ar    1  UNL1        0.0147
      4 C         141.4549  142.3297  155.9152 C.ar    1  UNL1        0.0010
      5 C         141.5327  140.9357  156.4637 C.ar    1  UNL1       -0.0026
      6 C         140.9452  140.6250  157.8084 C.ar    1  UNL1       -0.0024
      7 C         140.2801  141.7083  158.6047 C.ar    1  UNL1        0.0121
      8 C         140.3596  145.0906  159.7211 C.2     1  UNL1        0.4054
      9 O         141.8473  144.9125  159.7932 O.2     1  UNL1       -0.2261
     10 N         139.5372  144.1855  158.8526 N.am    1  UNL1       -0.2499
     11 H         138.5608  144.3024  158.8053 H       1  UNL1        0.1582
     12 O         139.6945  146.1739  160.5174 O.3     1  UNL1       -0.4345
     13 C         139.1824  145.1435  162.8468 C.3     1  UNL1        0.0513
     14 C         139.8372  146.2025  162.0104 C.3     1  UNL1        0.2102
     15 C         140.6770  138.9697  159.7928 C.ar    1  UNL1       -0.0036
     16 C         141.6525  139.3239  160.8758 C.ar    1  UNL1       -0.0025
     17 C         141.3064  139.0625  162.3118 C.ar    1  UNL1        0.0042
     18 C         139.9849  138.4469  162.6647 C.ar    1  UNL1        0.0536
     19 C         139.0094  138.0927  161.5817 C.ar    1  UNL1        0.0042
     20 C         139.3554  138.3540  160.1458 C.ar    1  UNL1       -0.0025
     21 C         139.6389  138.1856  164.1007 C.2     1  UNL1        0.2491
     22 O         140.2604  137.0271  164.8230 O.2     1  UNL1       -0.2699
     23 N         138.6715  139.0827  164.8143 N.am    1  UNL1       -0.2743
     24 C         138.3255  138.8213  166.2503 C.3     1  UNL1        0.1152
     25 C         138.0500  140.2411  164.0920 C.3     1  UNL1        0.0938
     26 C         138.2362  141.6360  164.6114 C.3     1  UNL1        0.0233
     27 N         141.4467  138.0984  157.4694 N.3     1  UNL1       -0.2644
     28 C         142.8893  137.6920  157.4091 C.3     1  UNL1        0.0901
     29 C         143.3130  136.5594  156.5216 C.3     1  UNL1        0.0900
     30 N         142.2941  135.8332  155.6943 N.3     1  UNL1       -0.2655
     31 C         140.8514  136.2396  155.7546 C.3     1  UNL1        0.0900
     32 C         140.4277  137.3722  156.6421 C.3     1  UNL1        0.0901
     33 C         142.7178  134.7006  154.8068 C.3     1  UNL1        0.1162
     34 C         142.4656  133.2832  155.2277 C.2     1  UNL1        0.0769
     35 N         141.5175  132.3239  154.5712 N.2     1  UNL1       -0.2297
     36 C         141.5831  131.0240  155.3167 C.2     1  UNL1        0.1939
     37 N         142.5718  131.1798  156.4340 N.2     1  UNL1       -0.2464
     38 C         143.1173  132.5760  156.3789 C.3     1  UNL1        0.1420
     39 C         144.1355  133.1622  157.3114 C.3     1  UNL1        0.0326
@<TRIPOS>BOND
     1    13    14    1
     2    14    12    1
     3    12     8    1
     4     8     9    2
     5     8    10   am
     6    10     2    1
     7     2     3   ar
     8     3     4   ar
     9     4     5   ar
    10     5     6   ar
    11     6     1    1
    12     1    15    1
    13    15    16   ar
    14    16    17   ar
    15    17    18   ar
    16    18    21    1
    17    21    22    2
    18    21    23   am
    19    23    24    1
    20    23    25    1
    21    25    26    1
    22    18    19   ar
    23    19    20   ar
    24     1    27    1
    25    27    28    1
    26    28    29    1
    27    29    30    1
    28    30    33    1
    29    33    34    1
    30    34    35    2
    31    35    36    1
    32    36    37    2
    33    37    38    1
    34    38    39    1
    35    30    31    1
    36    31    32    1
    37     6     7   ar
    38     7     2   ar
    39    20    15   ar
    40    32    27    1
    41    38    34    1
    42    10    11    1
@<TRIPOS>MOLECULE
*****
 39 42 0 0 0
SMALL
GASTEIGER

@<TRIPOS>ATOM
      1 C         139.0585  140.4907  157.1641 C.3     1  UNL1        0.1031
      2 C         135.4714  141.0635  155.5655 C.ar    1  UNL1        0.0529
      3 C         135.8052  141.0371  154.1034 C.ar    1  UNL1        0.0147
      4 C         137.2234  140.8285  153.6615 C.ar    1  UNL1        0.0010
      5 C         138.3078  140.6464  154.6816 C.ar    1  UNL1       -0.0026
      6 C         137.9740  140.6729  156.1438 C.ar    1  UNL1       -0.0024
      7 C         136.5559  140.8814  156.5857 C.ar    1  UNL1        0.0121
      8 C         133.2554  140.1177  156.5375 C.2     1  UNL1        0.4054
      9 O         133.8757  138.7548  156.6255 O.2     1  UNL1       -0.2261
     10 N         134.0533  141.2721  156.0075 N.am    1  UNL1       -0.2499
     11 H         133.6461  142.1666  155.9496 H       1  UNL1        0.1582
     12 O         131.8372  140.3263  156.9794 O.3     1  UNL1       -0.4345
     13 C         130.4140  138.1860  156.6004 C.3     1  UNL1        0.0513
     14 C         131.0470  139.1770  157.5316 C.3     1  UNL1        0.2102
     15 C         139.0351  141.2887  158.4340 C.ar    1  UNL1       -0.0036
     16 C         138.5137  140.6718  159.6979 C.ar    1  UNL1       -0.0025
     17 C         138.4903  141.4699  160.9678 C.ar    1  UNL1        0.0042
     18 C         138.9885  142.8847  160.9738 C.ar    1  UNL1        0.0536
     19 C         139.5099  143.5016  159.7099 C.ar    1  UNL1        0.0042
     20 C         139.5333  142.7036  158.4400 C.ar    1  UNL1       -0.0025
     21 C         138.9651  143.6826  162.2437 C.2     1  UNL1        0.2491
     22 O         137.7536  144.4929  162.5982 O.2     1  UNL1       -0.2699
     23 N         140.1533  143.6704  163.1591 N.am    1  UNL1       -0.2743
     24 C         140.1300  144.4684  164.4291 C.3     1  UNL1        0.1152
     25 C         141.3649  142.8602  162.8047 C.3     1  UNL1        0.0938
     26 C         142.4712  143.4773  162.0015 C.3     1  UNL1        0.0233
     27 N         140.1662  139.5107  156.9144 N.3     1  UNL1       -0.2644
     28 C         141.5652  140.0018  156.6877 C.3     1  UNL1        0.0901
     29 C         142.6730  139.0217  156.4380 C.3     1  UNL1        0.0900
     30 N         142.3817  137.5505  156.4150 N.3     1  UNL1       -0.2655
     31 C         140.9826  137.0593  156.6417 C.3     1  UNL1        0.0900
     32 C         139.8748  138.0394  156.8914 C.3     1  UNL1        0.0901
     33 C         143.4894  136.5704  156.1653 C.3     1  UNL1        0.1162
     34 C         143.2208  135.0972  156.2509 C.2     1  UNL1        0.0769
     35 N         143.4450  134.2285  157.4531 N.2     1  UNL1       -0.2297
     36 C         143.0436  132.8284  157.0947 C.2     1  UNL1        0.1939
     37 N         142.5715  132.8317  155.6709 N.2     1  UNL1       -0.2464
     38 C         142.6810  134.2339  155.1495 C.3     1  UNL1        0.1420
     39 C         142.3149  134.6922  153.7689 C.3     1  UNL1        0.0326
@<TRIPOS>BOND
     1    13    14    1
     2    14    12    1
     3    12     8    1
     4     8     9    2
     5     8    10   am
     6    10     2    1
     7     2     3   ar
     8     3     4   ar
     9     4     5   ar
    10     5     6   ar
    11     6     1    1
    12     1    15    1
    13    15    16   ar
    14    16    17   ar
    15    17    18   ar
    16    18    21    1
    17    21    22    2
    18    21    23   am
    19    23    24    1
    20    23    25    1
    21    25    26    1
    22    18    19   ar
    23    19    20   ar
    24     1    27    1
    25    27    28    1
    26    28    29    1
    27    29    30    1
    28    30    33    1
    29    33    34    1
    30    34    35    2
    31    35    36    1
    32    36    37    2
    33    37    38    1
    34    38    39    1
    35    30    31    1
    36    31    32    1
    37     6     7   ar
    38     7     2   ar
    39    20    15   ar
    40    32    27    1
    41    38    34    1
    42    10    11    1
@<TRIPOS>MOLECULE
*****
 39 42 0 0 0
SMALL
GASTEIGER

@<TRIPOS>ATOM
      1 C         141.7682  141.2975  161.4182 C.3     1  UNL1        0.1031
      2 C         140.4641  144.6579  159.7576 C.ar    1  UNL1        0.0529
      3 C         140.3940  145.5575  160.9558 C.ar    1  UNL1        0.0147
      4 C         140.7820  145.0372  162.3081 C.ar    1  UNL1        0.0010
      5 C         141.2400  143.6173  162.4623 C.ar    1  UNL1       -0.0026
      6 C         141.3101  142.7176  161.2641 C.ar    1  UNL1       -0.0024
      7 C         140.9221  143.2379  159.9118 C.ar    1  UNL1        0.0121
      8 C         141.0780  145.9203  157.5715 C.2     1  UNL1        0.4054
      9 O         142.4680  146.1421  158.0899 O.2     1  UNL1       -0.2261
     10 N         140.0761  145.1782  158.4053 N.am    1  UNL1       -0.2499
     11 H         139.1638  145.0326  158.0651 H       1  UNL1        0.1582
     12 O         140.6900  146.4406  156.2192 O.3     1  UNL1       -0.4345
     13 C         138.3203  146.0327  155.2351 C.3     1  UNL1        0.0513
     14 C         139.2877  146.9118  155.9709 C.3     1  UNL1        0.2102
     15 C         142.0672  140.7498  162.7822 C.ar    1  UNL1       -0.0036
     16 C         141.0384  139.9306  163.5036 C.ar    1  UNL1       -0.0025
     17 C         141.3374  139.3829  164.8677 C.ar    1  UNL1        0.0042
     18 C         142.6653  139.6543  165.5103 C.ar    1  UNL1        0.0536
     19 C         143.6942  140.4734  164.7889 C.ar    1  UNL1        0.0042
     20 C         143.3952  141.0212  163.4249 C.ar    1  UNL1       -0.0025
     21 C         142.9644  139.1065  166.8742 C.2     1  UNL1        0.2491
     22 O         143.9156  137.9570  167.0289 O.2     1  UNL1       -0.2699
     23 N         142.3122  139.7082  168.0836 N.am    1  UNL1       -0.2743
     24 C         142.6113  139.1604  169.4477 C.3     1  UNL1        0.1152
     25 C         141.3611  140.8577  167.9290 C.3     1  UNL1        0.0938
     26 C         141.8667  142.2670  168.0194 C.3     1  UNL1        0.0233
     27 N         141.9273  140.4253  160.2083 N.3     1  UNL1       -0.2644
     28 C         140.8195  139.5002  159.7998 C.3     1  UNL1        0.0901
     29 C         140.9785  138.6280  158.5898 C.3     1  UNL1        0.0900
     30 N         142.2454  138.6809  157.7884 N.3     1  UNL1       -0.2655
     31 C         143.3532  139.6060  158.1969 C.3     1  UNL1        0.0900
     32 C         143.1942  140.4782  159.4069 C.3     1  UNL1        0.0901
     33 C         142.4044  137.8086  156.5785 C.3     1  UNL1        0.1162
     34 C         142.6232  136.3336  156.7408 C.2     1  UNL1        0.0769
     35 N         143.5350  135.6820  157.7378 N.2     1  UNL1       -0.2297
     36 C         143.4440  134.1969  157.5478 C.2     1  UNL1        0.1939
     37 N         142.4760  133.9307  156.4333 N.2     1  UNL1       -0.2464
     38 C         141.9687  135.2513  155.9345 C.3     1  UNL1        0.1420
     39 C         140.9805  135.4539  154.8245 C.3     1  UNL1        0.0326
@<TRIPOS>BOND
     1    13    14    1
     2    14    12    1
     3    12     8    1
     4     8     9    2
     5     8    10   am
     6    10     2    1
     7     2     3   ar
     8     3     4   ar
     9     4     5   ar
    10     5     6   ar
    11     6     1    1
    12     1    15    1
    13    15    16   ar
    14    16    17   ar
    15    17    18   ar
    16    18    21    1
    17    21    22    2
    18    21    23   am
    19    23    24    1
    20    23    25    1
    21    25    26    1
    22    18    19   ar
    23    19    20   ar
    24     1    27    1
    25    27    28    1
    26    28    29    1
    27    29    30    1
    28    30    33    1
    29    33    34    1
    30    34    35    2
    31    35    36    1
    32    36    37    2
    33    37    38    1
    34    38    39    1
    35    30    31    1
    36    31    32    1
    37     6     7   ar
    38     7     2   ar
    39    20    15   ar
    40    32    27    1
    41    38    34    1
    42    10    11    1
@<TRIPOS>MOLECULE
*****
 39 42 0 0 0
SMALL
GASTEIGER

@<TRIPOS>ATOM
      1 C         141.9137  138.8550  158.0456 C.3     1  UNL1        0.1031
      2 C         144.1315  142.0944  157.4647 C.ar    1  UNL1        0.0529
      3 C         143.0747  143.1056  157.1324 C.ar    1  UNL1        0.0147
      4 C         141.6308  142.7000  157.1045 C.ar    1  UNL1        0.0010
      5 C         141.2438  141.2832  157.4088 C.ar    1  UNL1       -0.0026
      6 C         142.3007  140.2719  157.7412 C.ar    1  UNL1       -0.0024
      7 C         143.7445  140.6776  157.7691 C.ar    1  UNL1        0.0121
      8 C         146.5015  142.0521  156.4010 C.2     1  UNL1        0.4054
      9 O         145.9838  141.1985  155.2815 O.2     1  UNL1       -0.2261
     10 N         145.5754  142.5000  157.4926 N.am    1  UNL1       -0.2499
     11 H         145.9151  143.0603  158.2274 H       1  UNL1        0.1582
     12 O         147.9453  142.4577  156.4290 O.3     1  UNL1       -0.4345
     13 C         149.2492  142.2362  154.1927 C.3     1  UNL1        0.0513
     14 C         148.9439  141.7358  155.5734 C.3     1  UNL1        0.2102
     15 C         141.8611  137.8386  156.9437 C.ar    1  UNL1       -0.0036
     16 C         143.1298  137.2321  156.4216 C.ar    1  UNL1       -0.0025
     17 C         143.0771  136.2157  155.3197 C.ar    1  UNL1        0.0042
     18 C         141.7558  135.8059  154.7398 C.ar    1  UNL1        0.0536
     19 C         140.4872  136.4125  155.2618 C.ar    1  UNL1        0.0042
     20 C         140.5398  137.4288  156.3637 C.ar    1  UNL1       -0.0025
     21 C         141.7033  134.7896  153.6379 C.2     1  UNL1        0.2491
     22 O         141.8379  135.2251  152.2088 O.2     1  UNL1       -0.2699
     23 N         141.5161  133.3377  153.9650 N.am    1  UNL1       -0.2743
     24 C         141.4635  132.3213  152.8630 C.3     1  UNL1        0.1152
     25 C         141.3814  132.9021  155.3940 C.3     1  UNL1        0.0938
     26 C         142.5948  132.4745  156.1652 C.3     1  UNL1        0.0233
     27 N         141.5793  138.4545  159.4519 N.3     1  UNL1       -0.2644
     28 C         142.6658  137.9997  160.3806 C.3     1  UNL1        0.0901
     29 C         142.3314  137.5992  161.7870 C.3     1  UNL1        0.0900
     30 N         140.9105  137.6535  162.2646 N.3     1  UNL1       -0.2655
     31 C         139.8240  138.1083  161.3358 C.3     1  UNL1        0.0900
     32 C         140.1583  138.5088  159.9295 C.3     1  UNL1        0.0901
     33 C         140.5762  137.2529  163.6709 C.3     1  UNL1        0.1162
     34 C         140.9609  138.1425  164.8157 C.2     1  UNL1        0.0769
     35 N         142.3475  138.3365  165.3542 N.2     1  UNL1       -0.2297
     36 C         142.2702  139.3082  166.4943 C.2     1  UNL1        0.1939
     37 N         140.8359  139.7147  166.6604 N.2     1  UNL1       -0.2464
     38 C         140.0268  138.9943  165.6230 C.3     1  UNL1        0.1420
     39 C         138.5438  139.1060  165.4273 C.3     1  UNL1        0.0326
@<TRIPOS>BOND
     1    13    14    1
     2    14    12    1
     3    12     8    1
     4     8     9    2
     5     8    10   am
     6    10     2    1
     7     2     3   ar
     8     3     4   ar
     9     4     5   ar
    10     5     6   ar
    11     6     1    1
    12     1    15    1
    13    15    16   ar
    14    16    17   ar
    15    17    18   ar
    16    18    21    1
    17    21    22    2
    18    21    23   am
    19    23    24    1
    20    23    25    1
    21    25    26    1
    22    18    19   ar
    23    19    20   ar
    24     1    27    1
    25    27    28    1
    26    28    29    1
    27    29    30    1
    28    30    33    1
    29    33    34    1
    30    34    35    2
    31    35    36    1
    32    36    37    2
    33    37    38    1
    34    38    39    1
    35    30    31    1
    36    31    32    1
    37     6     7   ar
    38     7     2   ar
    39    20    15   ar
    40    32    27    1
    41    38    34    1
    42    10    11    1
