@<TRIPOS>MOLECULE
*****
 30 33 0 0 0
SMALL
GASTEIGER

@<TRIPOS>ATOM
      1 C         142.4591  139.7673  158.8252 C.2     1  UNL1        0.3047
      2 O         141.3778  140.7240  158.4184 O.2     1  UNL1       -0.2647
      3 N         143.1596  139.9423  160.1401 N.am    1  UNL1       -0.2647
      4 C         144.2518  139.2134  160.8651 C.3     1  UNL1        0.1391
      5 C         144.1503  140.1897  161.9995 C.3     1  UNL1        0.2052
      6 C         143.0580  140.9185  161.2743 C.3     1  UNL1        0.1391
      7 C         142.9653  136.4374  156.8963 C.ar    1  UNL1        0.2501
      8 N         143.8866  137.3511  156.1438 N.ar    1  UNL1       -0.1068
      9 N         143.8091  138.7098  156.7748 N.ar    1  UNL1       -0.1021
     10 C         142.8400  138.6357  157.9173 C.ar    1  UNL1        0.3043
     11 O         142.3184  137.2313  157.9923 O.2     1  UNL1       -0.4122
     12 C         142.2649  132.0795  156.0195 C.ar    1  UNL1        0.1387
     13 C         143.2539  132.4832  157.0725 C.ar    1  UNL1        0.0371
     14 C         143.4873  133.9358  157.3648 C.ar    1  UNL1        0.0078
     15 C         142.7318  134.9848  156.6040 C.ar    1  UNL1        0.0553
     16 C         141.7428  134.5811  155.5510 C.ar    1  UNL1        0.0078
     17 C         141.5093  133.1285  155.2587 C.ar    1  UNL1        0.0371
     18 C         140.9174  130.2159  154.8107 C.3     1  UNL1        0.2525
     19 O         142.0314  130.6269  155.7273 O.3     1  UNL1       -0.4714
     20 O         144.8507  140.3647  163.3142 O.3     1  UNL1       -0.4756
     21 C         144.0813  140.2420  164.5961 C.ar    1  UNL1        0.1385
     22 C         143.8420  138.8904  165.2008 C.ar    1  UNL1        0.0366
     23 C         143.0727  138.7677  166.4826 C.ar    1  UNL1        0.0002
     24 C         142.5427  139.9968  167.1598 C.ar    1  UNL1       -0.0059
     25 C         142.7820  141.3484  166.5550 C.ar    1  UNL1        0.0002
     26 C         143.5514  141.4711  165.2732 C.ar    1  UNL1        0.0366
     27 C         141.7733  139.8742  168.4416 C.3     1  UNL1        0.0992
     28 N         140.2873  140.0781  168.4468 N.3     1  UNL1       -0.2665
     29 C         139.6098  140.6265  169.6676 C.3     1  UNL1        0.0899
     30 C         139.4787  139.7338  167.2312 C.3     1  UNL1        0.0899
@<TRIPOS>BOND
     1    18    19    1
     2    19    12    1
     3    12    13   ar
     4    13    14   ar
     5    14    15   ar
     6    15     7    1
     7     7     8   ar
     8     8     9   ar
     9     9    10   ar
    10    10     1    1
    11     1     2    2
    12     1     3   am
    13     3     4    1
    14     4     5    1
    15     5    20    1
    16    20    21    1
    17    21    22   ar
    18    22    23   ar
    19    23    24   ar
    20    24    27    1
    21    27    28    1
    22    28    29    1
    23    28    30    1
    24    24    25   ar
    25    25    26   ar
    26     5     6    1
    27    10    11   ar
    28    15    16   ar
    29    16    17   ar
    30    17    12   ar
    31    11     7   ar
    32     6     3    1
    33    26    21   ar
@<TRIPOS>MOLECULE
*****
 30 33 0 0 0
SMALL
GASTEIGER

@<TRIPOS>ATOM
      1 C         142.4257  139.6075  158.2057 C.2     1  UNL1        0.3047
      2 O         143.2091  140.8844  158.1296 O.2     1  UNL1       -0.2647
      3 N         141.1790  139.5408  159.0371 N.am    1  UNL1       -0.2647
      4 C         140.1668  138.4783  159.3477 C.3     1  UNL1        0.1391
      5 C         139.4159  139.4466  160.2130 C.3     1  UNL1        0.2052
      6 C         140.4281  140.5091  159.9024 C.3     1  UNL1        0.1391
      7 C         143.0970  136.1152  156.6504 C.ar    1  UNL1        0.2501
      8 N         144.1069  136.9544  155.9253 N.ar    1  UNL1       -0.1068
      9 N         143.9784  138.3648  156.4196 N.ar    1  UNL1       -0.1021
     10 C         142.8890  138.3972  157.4503 C.ar    1  UNL1        0.3043
     11 O         142.3444  137.0069  157.5929 O.2     1  UNL1       -0.4122
     12 C         142.4407  131.6980  156.0957 C.ar    1  UNL1        0.1387
     13 C         141.5865  132.6822  155.3530 C.ar    1  UNL1        0.0371
     14 C         141.8053  134.1546  155.5379 C.ar    1  UNL1        0.0078
     15 C         142.8783  134.6428  156.4655 C.ar    1  UNL1        0.0553
     16 C         143.7324  133.6586  157.2082 C.ar    1  UNL1        0.0078
     17 C         143.5136  132.1862  157.0233 C.ar    1  UNL1        0.0371
     18 C         141.0880  129.7370  155.0592 C.3     1  UNL1        0.2525
     19 O         142.2219  130.2256  155.9108 O.3     1  UNL1       -0.4714
     20 O         138.1693  139.3799  161.0444 O.3     1  UNL1       -0.4756
     21 C         138.2677  139.3122  162.5397 C.ar    1  UNL1        0.1385
     22 C         138.7460  138.0551  163.2037 C.ar    1  UNL1        0.0366
     23 C         138.8445  137.9874  164.6989 C.ar    1  UNL1        0.0002
     24 C         138.4646  139.1768  165.5302 C.ar    1  UNL1       -0.0059
     25 C         137.9863  140.4338  164.8662 C.ar    1  UNL1        0.0002
     26 C         137.8878  140.5016  163.3709 C.ar    1  UNL1        0.0366
     27 C         138.5630  139.1091  167.0254 C.3     1  UNL1        0.0992
     28 N         139.6689  139.8300  167.7376 N.3     1  UNL1       -0.2665
     29 C         141.0058  139.9926  167.0768 C.3     1  UNL1        0.0899
     30 C         139.4381  140.3884  169.1105 C.3     1  UNL1        0.0899
@<TRIPOS>BOND
     1    18    19    1
     2    19    12    1
     3    12    13   ar
     4    13    14   ar
     5    14    15   ar
     6    15     7    1
     7     7     8   ar
     8     8     9   ar
     9     9    10   ar
    10    10     1    1
    11     1     2    2
    12     1     3   am
    13     3     4    1
    14     4     5    1
    15     5    20    1
    16    20    21    1
    17    21    22   ar
    18    22    23   ar
    19    23    24   ar
    20    24    27    1
    21    27    28    1
    22    28    29    1
    23    28    30    1
    24    24    25   ar
    25    25    26   ar
    26     5     6    1
    27    10    11   ar
    28    15    16   ar
    29    16    17   ar
    30    17    12   ar
    31    11     7   ar
    32     6     3    1
    33    26    21   ar
@<TRIPOS>MOLECULE
*****
 30 33 0 0 0
SMALL
GASTEIGER

@<TRIPOS>ATOM
      1 C         142.1818  139.6657  157.7956 C.2     1  UNL1        0.3047
      2 O         142.8012  141.0025  157.5139 O.2     1  UNL1       -0.2647
      3 N         140.9685  139.5711  158.6726 N.am    1  UNL1       -0.2647
      4 C         140.1002  138.4514  159.1646 C.3     1  UNL1        0.1391
      5 C         139.2526  139.4374  159.9127 C.3     1  UNL1        0.2052
      6 C         140.1210  140.5571  159.4206 C.3     1  UNL1        0.1391
      7 C         143.1702  136.0972  156.6319 C.ar    1  UNL1        0.2501
      8 N         144.2089  136.9268  155.9371 N.ar    1  UNL1       -0.1068
      9 N         143.9651  138.3645  156.2884 N.ar    1  UNL1       -0.1021
     10 C         142.7757  138.4235  157.2004 C.ar    1  UNL1        0.3043
     11 O         142.2844  137.0223  157.4126 O.2     1  UNL1       -0.4122
     12 C         142.7798  131.6195  156.4124 C.ar    1  UNL1        0.1387
     13 C         143.8406  132.2386  157.2734 C.ar    1  UNL1        0.0371
     14 C         143.9707  133.7312  157.3465 C.ar    1  UNL1        0.0078
     15 C         143.0400  134.6046  156.5587 C.ar    1  UNL1        0.0553
     16 C         141.9792  133.9856  155.6977 C.ar    1  UNL1        0.0078
     17 C         141.8491  132.4930  155.6246 C.ar    1  UNL1        0.0371
     18 C         143.3071  129.2651  157.3760 C.3     1  UNL1        0.2525
     19 O         142.6496  130.1270  156.3393 O.3     1  UNL1       -0.4714
     20 O         138.0394  139.3428  160.7896 O.3     1  UNL1       -0.4756
     21 C         138.1941  139.2889  162.2807 C.ar    1  UNL1        0.1385
     22 C         137.8358  140.4824  163.1156 C.ar    1  UNL1        0.0366
     23 C         137.9905  140.4284  164.6066 C.ar    1  UNL1        0.0002
     24 C         138.5035  139.1809  165.2628 C.ar    1  UNL1       -0.0059
     25 C         138.8617  137.9874  164.4279 C.ar    1  UNL1        0.0002
     26 C         138.7071  138.0413  162.9368 C.ar    1  UNL1        0.0366
     27 C         138.6581  139.1270  166.7538 C.3     1  UNL1        0.0992
     28 N         139.7984  139.8421  167.4158 N.3     1  UNL1       -0.2665
     29 C         139.6373  140.3869  168.8041 C.3     1  UNL1        0.0899
     30 C         141.0999  140.0124  166.6897 C.3     1  UNL1        0.0899
@<TRIPOS>BOND
     1    18    19    1
     2    19    12    1
     3    12    13   ar
     4    13    14   ar
     5    14    15   ar
     6    15     7    1
     7     7     8   ar
     8     8     9   ar
     9     9    10   ar
    10    10     1    1
    11     1     2    2
    12     1     3   am
    13     3     4    1
    14     4     5    1
    15     5    20    1
    16    20    21    1
    17    21    22   ar
    18    22    23   ar
    19    23    24   ar
    20    24    27    1
    21    27    28    1
    22    28    29    1
    23    28    30    1
    24    24    25   ar
    25    25    26   ar
    26     5     6    1
    27    10    11   ar
    28    15    16   ar
    29    16    17   ar
    30    17    12   ar
    31    11     7   ar
    32     6     3    1
    33    26    21   ar
@<TRIPOS>MOLECULE
*****
 30 33 0 0 0
SMALL
GASTEIGER

@<TRIPOS>ATOM
      1 C         140.2592  138.8195  160.9135 C.2     1  UNL1        0.3047
      2 O         138.9835  139.5497  160.6148 O.2     1  UNL1       -0.2647
      3 N         141.1835  138.4365  159.7959 N.am    1  UNL1       -0.2647
      4 C         142.5014  137.7259  159.7059 C.3     1  UNL1        0.1391
      5 C         142.4906  137.8948  158.2154 C.3     1  UNL1        0.2052
      6 C         141.1727  138.6055  158.3055 C.3     1  UNL1        0.1391
      7 C         141.0296  138.6495  164.7139 C.ar    1  UNL1        0.2501
      8 N         141.2736  137.2272  164.3048 N.ar    1  UNL1       -0.1068
      9 N         141.0147  137.1177  162.8313 N.ar    1  UNL1       -0.1021
     10 C         140.6107  138.4724  162.3298 C.ar    1  UNL1        0.3043
     11 O         140.6199  139.4191  163.4933 O.2     1  UNL1       -0.4122
     12 C         141.4523  140.3152  168.8729 C.ar    1  UNL1        0.1387
     13 C         142.6427  139.7250  168.1768 C.ar    1  UNL1        0.0371
     14 C         142.5018  139.1697  166.7904 C.ar    1  UNL1        0.0078
     15 C         141.1705  139.2047  166.1002 C.ar    1  UNL1        0.0553
     16 C         139.9801  139.7950  166.7964 C.ar    1  UNL1        0.0078
     17 C         140.1210  140.3502  168.1827 C.ar    1  UNL1        0.0371
     18 C         142.0804  142.2750  170.4586 C.3     1  UNL1        0.2525
     19 O         141.5932  140.8704  170.2592 O.3     1  UNL1       -0.4714
     20 O         143.4149  137.5118  157.0979 O.3     1  UNL1       -0.4756
     21 C         143.2115  136.2181  156.3664 C.ar    1  UNL1        0.1385
     22 C         142.9300  136.2256  154.8932 C.ar    1  UNL1        0.0366
     23 C         142.7266  134.9319  154.1618 C.ar    1  UNL1        0.0002
     24 C         142.8048  133.6305  154.9038 C.ar    1  UNL1       -0.0059
     25 C         143.0863  133.6230  156.3770 C.ar    1  UNL1        0.0002
     26 C         143.2897  134.9168  157.1085 C.ar    1  UNL1        0.0366
     27 C         142.6014  132.3368  154.1724 C.3     1  UNL1        0.0992
     28 N         142.9491  131.0374  154.8362 N.3     1  UNL1       -0.2665
     29 C         144.3781  130.5854  154.8979 C.3     1  UNL1        0.0899
     30 C         141.8677  130.1899  155.4383 C.3     1  UNL1        0.0899
@<TRIPOS>BOND
     1    18    19    1
     2    19    12    1
     3    12    13   ar
     4    13    14   ar
     5    14    15   ar
     6    15     7    1
     7     7     8   ar
     8     8     9   ar
     9     9    10   ar
    10    10     1    1
    11     1     2    2
    12     1     3   am
    13     3     4    1
    14     4     5    1
    15     5    20    1
    16    20    21    1
    17    21    22   ar
    18    22    23   ar
    19    23    24   ar
    20    24    27    1
    21    27    28    1
    22    28    29    1
    23    28    30    1
    24    24    25   ar
    25    25    26   ar
    26     5     6    1
    27    10    11   ar
    28    15    16   ar
    29    16    17   ar
    30    17    12   ar
    31    11     7   ar
    32     6     3    1
    33    26    21   ar
@<TRIPOS>MOLECULE
*****
 30 33 0 0 0
SMALL
GASTEIGER

@<TRIPOS>ATOM
      1 C         139.1403  139.2635  159.1407 C.2     1  UNL1        0.3047
      2 O         137.9636  139.9025  158.4647 O.2     1  UNL1       -0.2647
      3 N         139.0095  138.7445  160.5420 N.am    1  UNL1       -0.2647
      4 C         139.9312  138.0677  161.5127 C.3     1  UNL1        0.1391
      5 C         138.8244  138.0106  162.5237 C.3     1  UNL1        0.2052
      6 C         137.9028  138.6874  161.5529 C.3     1  UNL1        0.1391
      7 C         142.6291  139.6649  157.4875 C.ar    1  UNL1        0.2501
      8 N         142.2908  138.2528  157.1113 N.ar    1  UNL1       -0.1068
      9 N         140.9427  137.9305  157.6848 N.ar    1  UNL1       -0.1021
     10 C         140.4478  139.1435  158.4155 C.ar    1  UNL1        0.3043
     11 O         141.4901  140.2153  158.2935 O.2     1  UNL1       -0.4122
     12 C         146.3990  141.8637  156.3908 C.ar    1  UNL1        0.1387
     13 C         145.5798  142.3177  157.5624 C.ar    1  UNL1        0.0371
     14 C         144.3232  141.5847  157.9280 C.ar    1  UNL1        0.0078
     15 C         143.8857  140.3978  157.1220 C.ar    1  UNL1        0.0553
     16 C         144.7049  139.9438  155.9503 C.ar    1  UNL1        0.0078
     17 C         145.9615  140.6768  155.5847 C.ar    1  UNL1        0.0371
     18 C         148.6412  141.9717  155.0828 C.3     1  UNL1        0.2525
     19 O         147.6556  142.5966  156.0252 O.3     1  UNL1       -0.4714
     20 O         138.6936  137.4917  163.9249 O.3     1  UNL1       -0.4756
     21 C         139.0670  138.3649  165.0860 C.ar    1  UNL1        0.1385
     22 C         140.3416  139.1549  165.0510 C.ar    1  UNL1        0.0366
     23 C         140.7149  140.0281  166.2121 C.ar    1  UNL1        0.0002
     24 C         139.8136  140.1113  167.4082 C.ar    1  UNL1       -0.0059
     25 C         138.5391  139.3213  167.4433 C.ar    1  UNL1        0.0002
     26 C         138.1657  138.4481  166.2821 C.ar    1  UNL1        0.0366
     27 C         140.1870  140.9845  168.5693 C.3     1  UNL1        0.0992
     28 N         141.0126  140.4280  169.6912 N.3     1  UNL1       -0.2665
     29 C         142.0919  139.4269  169.4031 C.3     1  UNL1        0.0899
     30 C         140.7590  140.8727  171.1012 C.3     1  UNL1        0.0899
@<TRIPOS>BOND
     1    18    19    1
     2    19    12    1
     3    12    13   ar
     4    13    14   ar
     5    14    15   ar
     6    15     7    1
     7     7     8   ar
     8     8     9   ar
     9     9    10   ar
    10    10     1    1
    11     1     2    2
    12     1     3   am
    13     3     4    1
    14     4     5    1
    15     5    20    1
    16    20    21    1
    17    21    22   ar
    18    22    23   ar
    19    23    24   ar
    20    24    27    1
    21    27    28    1
    22    28    29    1
    23    28    30    1
    24    24    25   ar
    25    25    26   ar
    26     5     6    1
    27    10    11   ar
    28    15    16   ar
    29    16    17   ar
    30    17    12   ar
    31    11     7   ar
    32     6     3    1
    33    26    21   ar
@<TRIPOS>MOLECULE
*****
 30 33 0 0 0
SMALL
GASTEIGER

@<TRIPOS>ATOM
      1 C         139.7808  139.2612  159.3749 C.2     1  UNL1        0.3047
      2 O         138.4374  139.5904  158.7945 O.2     1  UNL1       -0.2647
      3 N         140.7702  138.4683  158.5735 N.am    1  UNL1       -0.2647
      4 C         142.1628  137.9626  158.8079 C.3     1  UNL1        0.1391
      5 C         142.1694  137.3469  157.4400 C.3     1  UNL1        0.2052
      6 C         140.7769  137.8527  157.2056 C.3     1  UNL1        0.1391
      7 C         140.1225  140.0230  163.1655 C.ar    1  UNL1        0.2501
      8 N         141.2364  140.8542  162.6012 N.ar    1  UNL1       -0.1068
      9 N         141.2440  140.6700  161.1126 N.ar    1  UNL1       -0.1021
     10 C         140.1348  139.7250  160.7568 C.ar    1  UNL1        0.3043
     11 O         139.4417  139.3251  162.0256 O.2     1  UNL1       -0.4122
     12 C         139.0174  139.6829  167.5144 C.ar    1  UNL1        0.1387
     13 C         138.3393  138.8128  166.4980 C.ar    1  UNL1        0.0371
     14 C         138.7077  138.9262  165.0484 C.ar    1  UNL1        0.0078
     15 C         139.7541  139.9096  164.6152 C.ar    1  UNL1        0.0553
     16 C         140.4322  140.7797  165.6316 C.ar    1  UNL1        0.0078
     17 C         140.0638  140.6663  167.0812 C.ar    1  UNL1        0.0371
     18 C         139.1237  140.6034  169.9416 C.3     1  UNL1        0.2525
     19 O         138.6490  139.5695  168.9641 O.3     1  UNL1       -0.4714
     20 O         143.1588  136.5540  156.6386 O.3     1  UNL1       -0.4756
     21 C         142.9755  135.0745  156.4724 C.ar    1  UNL1        0.1385
     22 C         143.7762  134.1209  157.3086 C.ar    1  UNL1        0.0366
     23 C         143.5929  132.6415  157.1423 C.ar    1  UNL1        0.0002
     24 C         142.6088  132.1156  156.1397 C.ar    1  UNL1       -0.0059
     25 C         141.8081  133.0693  155.3035 C.ar    1  UNL1        0.0002
     26 C         141.9914  134.5488  155.4698 C.ar    1  UNL1        0.0366
     27 C         142.4255  130.6362  155.9735 C.3     1  UNL1        0.0992
     28 N         143.0893  129.9217  154.8339 N.3     1  UNL1       -0.2665
     29 C         144.5803  129.7577  154.8180 C.3     1  UNL1        0.0899
     30 C         142.2622  129.3710  153.7101 C.3     1  UNL1        0.0899
@<TRIPOS>BOND
     1    18    19    1
     2    19    12    1
     3    12    13   ar
     4    13    14   ar
     5    14    15   ar
     6    15     7    1
     7     7     8   ar
     8     8     9   ar
     9     9    10   ar
    10    10     1    1
    11     1     2    2
    12     1     3   am
    13     3     4    1
    14     4     5    1
    15     5    20    1
    16    20    21    1
    17    21    22   ar
    18    22    23   ar
    19    23    24   ar
    20    24    27    1
    21    27    28    1
    22    28    29    1
    23    28    30    1
    24    24    25   ar
    25    25    26   ar
    26     5     6    1
    27    10    11   ar
    28    15    16   ar
    29    16    17   ar
    30    17    12   ar
    31    11     7   ar
    32     6     3    1
    33    26    21   ar
@<TRIPOS>MOLECULE
*****
 30 33 0 0 0
SMALL
GASTEIGER

@<TRIPOS>ATOM
      1 C         142.7649  139.7703  159.6243 C.2     1  UNL1        0.3047
      2 O         143.1751  141.2021  159.4459 O.2     1  UNL1       -0.2647
      3 N         142.1453  139.3229  160.9151 N.am    1  UNL1       -0.2647
      4 C         141.6253  138.0201  161.4464 C.3     1  UNL1        0.1391
      5 C         141.2691  138.6901  162.7404 C.3     1  UNL1        0.2052
      6 C         141.7891  139.9929  162.2090 C.3     1  UNL1        0.1391
      7 C         142.9425  136.7445  157.1998 C.ar    1  UNL1        0.2501
      8 N         143.6509  137.7980  156.4009 N.ar    1  UNL1       -0.1068
      9 N         143.6706  139.0597  157.2119 N.ar    1  UNL1       -0.1021
     10 C         142.9744  138.7860  158.5120 C.ar    1  UNL1        0.3043
     11 O         142.5244  137.3551  158.5046 O.2     1  UNL1       -0.4122
     12 C         142.2017  132.4977  155.9090 C.ar    1  UNL1        0.1387
     13 C         141.4739  133.6238  155.2365 C.ar    1  UNL1        0.0371
     14 C         141.7209  135.0394  155.6668 C.ar    1  UNL1        0.0078
     15 C         142.6956  135.3289  156.7696 C.ar    1  UNL1        0.0553
     16 C         143.4233  134.2028  157.4420 C.ar    1  UNL1        0.0078
     17 C         143.1764  132.7872  157.0118 C.ar    1  UNL1        0.0371
     18 C         143.0113  130.0387  155.6907 C.3     1  UNL1        0.2525
     19 O         141.9548  131.0821  155.4787 O.3     1  UNL1       -0.4714
     20 O         140.6495  138.2427  164.0310 O.3     1  UNL1       -0.4756
     21 C         141.1681  138.7723  165.3352 C.ar    1  UNL1        0.1385
     22 C         140.2810  139.6047  166.2126 C.ar    1  UNL1        0.0366
     23 C         140.7996  140.1343  167.5167 C.ar    1  UNL1        0.0002
     24 C         142.2054  139.8313  167.9434 C.ar    1  UNL1       -0.0059
     25 C         143.0925  138.9989  167.0659 C.ar    1  UNL1        0.0002
     26 C         142.5739  138.4693  165.7618 C.ar    1  UNL1        0.0366
     27 C         142.7239  140.3608  169.2475 C.3     1  UNL1        0.0992
     28 N         141.8955  141.3195  170.0503 N.3     1  UNL1       -0.2665
     29 C         140.9079  140.8000  171.0528 C.3     1  UNL1        0.0899
     30 C         142.0544  142.7976  169.8506 C.3     1  UNL1        0.0899
@<TRIPOS>BOND
     1    18    19    1
     2    19    12    1
     3    12    13   ar
     4    13    14   ar
     5    14    15   ar
     6    15     7    1
     7     7     8   ar
     8     8     9   ar
     9     9    10   ar
    10    10     1    1
    11     1     2    2
    12     1     3   am
    13     3     4    1
    14     4     5    1
    15     5    20    1
    16    20    21    1
    17    21    22   ar
    18    22    23   ar
    19    23    24   ar
    20    24    27    1
    21    27    28    1
    22    28    29    1
    23    28    30    1
    24    24    25   ar
    25    25    26   ar
    26     5     6    1
    27    10    11   ar
    28    15    16   ar
    29    16    17   ar
    30    17    12   ar
    31    11     7   ar
    32     6     3    1
    33    26    21   ar
@<TRIPOS>MOLECULE
*****
 30 33 0 0 0
SMALL
GASTEIGER

@<TRIPOS>ATOM
      1 C         138.5765  138.9422  165.4395 C.2     1  UNL1        0.3047
      2 O         138.4264  137.4626  165.2441 O.2     1  UNL1       -0.2647
      3 N         138.2682  139.8827  164.3124 N.am    1  UNL1       -0.2647
      4 C         138.2986  141.3718  164.1352 C.3     1  UNL1        0.1391
      5 C         137.8322  141.2128  162.7184 C.3     1  UNL1        0.2052
      6 C         137.8018  139.7236  162.8957 C.3     1  UNL1        0.1391
      7 C         140.2942  140.6822  168.4541 C.ar    1  UNL1        0.2501
      8 N         139.1864  139.9396  169.1407 N.ar    1  UNL1       -0.1068
      9 N         138.4081  139.1974  168.0950 N.ar    1  UNL1       -0.1021
     10 C         139.0349  139.4813  166.7621 C.ar    1  UNL1        0.3043
     11 O         140.2005  140.3989  166.9841 O.2     1  UNL1       -0.4122
     12 C         143.3602  143.3000  170.4533 C.ar    1  UNL1        0.1387
     13 C         141.9050  143.6558  170.5308 C.ar    1  UNL1        0.0371
     14 C         140.8831  142.7832  169.8644 C.ar    1  UNL1        0.0078
     15 C         141.3162  141.5548  169.1205 C.ar    1  UNL1        0.0553
     16 C         142.7713  141.1991  169.0429 C.ar    1  UNL1        0.0078
     17 C         143.7933  142.0717  169.7093 C.ar    1  UNL1        0.0371
     18 C         145.8415  143.9647  170.8421 C.3     1  UNL1        0.2525
     19 O         144.3821  144.1726  171.1197 O.3     1  UNL1       -0.4714
     20 O         137.5239  142.1532  161.5913 O.3     1  UNL1       -0.4756
     21 C         138.6311  142.6683  160.7201 C.ar    1  UNL1        0.1385
     22 C         138.8882  142.0386  159.3833 C.ar    1  UNL1        0.0366
     23 C         139.9954  142.5537  158.5121 C.ar    1  UNL1        0.0002
     24 C         140.8454  143.6985  158.9779 C.ar    1  UNL1       -0.0059
     25 C         140.5883  144.3281  160.3148 C.ar    1  UNL1        0.0002
     26 C         139.4811  143.8131  161.1860 C.ar    1  UNL1        0.0366
     27 C         141.9526  144.2135  158.1068 C.3     1  UNL1        0.0992
     28 N         141.6349  145.0779  156.9227 N.3     1  UNL1       -0.2665
     29 C         140.5098  146.0672  156.9966 C.3     1  UNL1        0.0899
     30 C         142.4423  144.9529  155.6647 C.3     1  UNL1        0.0899
@<TRIPOS>BOND
     1    18    19    1
     2    19    12    1
     3    12    13   ar
     4    13    14   ar
     5    14    15   ar
     6    15     7    1
     7     7     8   ar
     8     8     9   ar
     9     9    10   ar
    10    10     1    1
    11     1     2    2
    12     1     3   am
    13     3     4    1
    14     4     5    1
    15     5    20    1
    16    20    21    1
    17    21    22   ar
    18    22    23   ar
    19    23    24   ar
    20    24    27    1
    21    27    28    1
    22    28    29    1
    23    28    30    1
    24    24    25   ar
    25    25    26   ar
    26     5     6    1
    27    10    11   ar
    28    15    16   ar
    29    16    17   ar
    30    17    12   ar
    31    11     7   ar
    32     6     3    1
    33    26    21   ar
@<TRIPOS>MOLECULE
*****
 30 33 0 0 0
SMALL
GASTEIGER

@<TRIPOS>ATOM
      1 C         139.3794  140.6120  157.9595 C.2     1  UNL1        0.3047
      2 O         140.2618  141.7678  157.5914 O.2     1  UNL1       -0.2647
      3 N         139.7143  139.7618  159.1490 N.am    1  UNL1       -0.2647
      4 C         139.0938  138.5640  159.8049 C.3     1  UNL1        0.1391
      5 C         140.1879  138.5594  160.8312 C.3     1  UNL1        0.2052
      6 C         140.8083  139.7572  160.1752 C.3     1  UNL1        0.1391
      7 C         135.8578  140.1710  156.3882 C.ar    1  UNL1        0.2501
      8 N         136.7201  139.5017  155.3594 N.ar    1  UNL1       -0.1068
      9 N         138.1443  139.5854  155.8227 N.ar    1  UNL1       -0.1021
     10 C         138.1622  140.3065  157.1379 C.ar    1  UNL1        0.3043
     11 O         136.7490  140.6684  157.4874 O.2     1  UNL1       -0.4122
     12 C         131.3828  140.6098  156.2085 C.ar    1  UNL1        0.1387
     13 C         132.0044  139.6578  157.1869 C.ar    1  UNL1        0.0371
     14 C         133.4960  139.5115  157.2468 C.ar    1  UNL1        0.0078
     15 C         134.3661  140.3173  156.3283 C.ar    1  UNL1        0.0553
     16 C         133.7445  141.2693  155.3499 C.ar    1  UNL1        0.0078
     17 C         132.2529  141.4155  155.2900 C.ar    1  UNL1        0.0371
     18 C         129.0229  139.9801  157.0942 C.3     1  UNL1        0.2525
     19 O         129.8911  140.7560  156.1486 O.3     1  UNL1       -0.4714
     20 O         140.5227  137.7092  162.0207 O.3     1  UNL1       -0.4756
     21 C         140.2337  138.2091  163.4051 C.ar    1  UNL1        0.1385
     22 C         141.3185  138.8642  164.2077 C.ar    1  UNL1        0.0366
     23 C         141.0295  139.3641  165.5920 C.ar    1  UNL1        0.0002
     24 C         139.6557  139.2089  166.1740 C.ar    1  UNL1       -0.0059
     25 C         138.5710  138.5538  165.3715 C.ar    1  UNL1        0.0002
     26 C         138.8599  138.0539  163.9870 C.ar    1  UNL1        0.0366
     27 C         139.3668  139.7088  167.5584 C.3     1  UNL1        0.0992
     28 N         140.3937  140.5186  168.2929 N.3     1  UNL1       -0.2665
     29 C         141.3504  139.8438  169.2309 C.3     1  UNL1        0.0899
     30 C         140.4642  142.0031  168.0895 C.3     1  UNL1        0.0899
@<TRIPOS>BOND
     1    18    19    1
     2    19    12    1
     3    12    13   ar
     4    13    14   ar
     5    14    15   ar
     6    15     7    1
     7     7     8   ar
     8     8     9   ar
     9     9    10   ar
    10    10     1    1
    11     1     2    2
    12     1     3   am
    13     3     4    1
    14     4     5    1
    15     5    20    1
    16    20    21    1
    17    21    22   ar
    18    22    23   ar
    19    23    24   ar
    20    24    27    1
    21    27    28    1
    22    28    29    1
    23    28    30    1
    24    24    25   ar
    25    25    26   ar
    26     5     6    1
    27    10    11   ar
    28    15    16   ar
    29    16    17   ar
    30    17    12   ar
    31    11     7   ar
    32     6     3    1
    33    26    21   ar
