@<TRIPOS>MOLECULE
*****
 33 38 0 0 0
SMALL
GASTEIGER

@<TRIPOS>ATOM
      1 O         143.6412  140.7625  158.6615 O.2     1  UNL1       -0.2647
      2 C         142.7038  139.5950  158.5715 C.2     1  UNL1        0.3047
      3 N         141.4262  139.5966  159.3574 N.am    1  UNL1       -0.2647
      4 C         140.7665  140.5518  160.3075 C.3     1  UNL1        0.1391
      5 C         139.6193  139.5990  160.4689 C.3     1  UNL1        0.2052
      6 C         140.2789  138.6438  159.5188 C.3     1  UNL1        0.1391
      7 C         143.0439  138.4257  157.6956 C.ar    1  UNL1        0.3043
      8 N         143.9328  138.4581  156.4878 N.ar    1  UNL1       -0.1021
      9 N         143.9932  137.0713  155.9194 N.ar    1  UNL1       -0.1068
     10 C         143.1417  136.1818  156.7760 C.ar    1  UNL1        0.2501
     11 O         142.5550  137.0190  157.8737 O.2     1  UNL1       -0.4122
     12 C         142.9164  134.7130  156.5708 C.ar    1  UNL1        0.0551
     13 C         143.7528  133.7148  157.3150 C.ar    1  UNL1        0.0047
     14 C         143.5275  132.2461  157.1098 C.ar    1  UNL1        0.0002
     15 C         142.4656  131.7756  156.1605 C.ar    1  UNL1        0.0000
     16 C         141.6292  132.7739  155.4163 C.ar    1  UNL1        0.0002
     17 C         141.8545  134.2426  155.6215 C.ar    1  UNL1        0.0047
     18 O         138.3417  139.6006  161.2548 O.3     1  UNL1       -0.4756
     19 C         138.3795  139.4634  162.7481 C.ar    1  UNL1        0.1385
     20 C         138.0164  140.6303  163.6179 C.ar    1  UNL1        0.0366
     21 C         138.0542  140.4932  165.1111 C.ar    1  UNL1        0.0002
     22 C         138.4552  139.1891  165.7345 C.ar    1  UNL1       -0.0059
     23 C         138.8183  138.0222  164.8647 C.ar    1  UNL1        0.0002
     24 C         138.7805  138.1594  163.3715 C.ar    1  UNL1        0.0366
     25 C         138.4931  139.0519  167.2278 C.3     1  UNL1        0.0992
     26 N         139.3304  139.9896  168.0461 N.3     1  UNL1       -0.2687
     27 C         139.3154  140.4555  169.4718 C.3     1  UNL1        0.0761
     28 C         140.5145  141.3157  169.2034 C.3     1  UNL1        0.0592
     29 C         141.7012  142.0925  168.7152 C.3     1  UNL1        0.0372
     30 C         142.2322  142.8981  169.8637 C.3     1  UNL1        0.1423
     31 O         141.3737  142.6192  171.0617 O.3     1  UNL1       -0.3537
     32 C         140.3121  141.6413  170.6536 C.3     1  UNL1        0.1448
     33 C         140.5295  140.8498  167.7776 C.3     1  UNL1        0.0761
@<TRIPOS>BOND
     1     1     2    2
     2     2     7    1
     3     7     8   ar
     4     8     9   ar
     5     9    10   ar
     6    10    12    1
     7    12    13   ar
     8    13    14   ar
     9    14    15   ar
    10    15    16   ar
    11    16    17   ar
    12    10    11   ar
    13     2     3   am
    14     3     4    1
    15     4     5    1
    16     5    18    1
    17    18    19    1
    18    19    20   ar
    19    20    21   ar
    20    21    22   ar
    21    22    25    1
    22    25    26    1
    23    26    27    1
    24    27    28    1
    25    28    29    1
    26    29    30    1
    27    30    31    1
    28    31    32    1
    29    28    33    1
    30    22    23   ar
    31    23    24   ar
    32     5     6    1
    33    11     7   ar
    34     6     3    1
    35    17    12   ar
    36    24    19   ar
    37    33    26    1
    38    32    28    1
@<TRIPOS>MOLECULE
*****
 33 38 0 0 0
SMALL
GASTEIGER

@<TRIPOS>ATOM
      1 O         143.6116  138.9384  158.3083 O.2     1  UNL1       -0.2647
      2 C         142.3408  138.1462  158.2230 C.2     1  UNL1        0.3047
      3 N         141.1606  138.5286  159.0661 N.am    1  UNL1       -0.2647
      4 C         140.8819  139.6021  160.0762 C.3     1  UNL1        0.1391
      5 C         139.4915  139.0696  160.2585 C.3     1  UNL1        0.2052
      6 C         139.7701  137.9961  159.2485 C.3     1  UNL1        0.1391
      7 C         142.2500  136.9715  157.2946 C.ar    1  UNL1        0.3043
      8 N         141.2710  136.8106  156.1696 N.ar    1  UNL1       -0.1021
      9 N         141.5382  135.4912  155.5079 N.ar    1  UNL1       -0.1068
     10 C         142.6822  134.8368  156.2239 C.ar    1  UNL1        0.2501
     11 O         143.1221  135.7517  157.3282 O.2     1  UNL1       -0.4122
     12 C         143.2813  133.5017  155.8937 C.ar    1  UNL1        0.0551
     13 C         142.8694  132.7836  154.6428 C.ar    1  UNL1        0.0047
     14 C         143.4684  131.4486  154.3127 C.ar    1  UNL1        0.0002
     15 C         144.4793  130.8318  155.2334 C.ar    1  UNL1        0.0000
     16 C         144.8912  131.5499  156.4842 C.ar    1  UNL1        0.0002
     17 C         144.2922  132.8849  156.8144 C.ar    1  UNL1        0.0047
     18 O         138.3113  139.4520  161.1017 O.3     1  UNL1       -0.4756
     19 C         138.4255  139.4489  162.5973 C.ar    1  UNL1        0.1385
     20 C         138.8847  138.2125  163.3118 C.ar    1  UNL1        0.0366
     21 C         138.9990  138.2093  164.8074 C.ar    1  UNL1        0.0002
     22 C         138.6541  139.4425  165.5885 C.ar    1  UNL1       -0.0059
     23 C         138.1949  140.6789  164.8740 C.ar    1  UNL1        0.0002
     24 C         138.0806  140.6821  163.3784 C.ar    1  UNL1        0.0366
     25 C         138.7683  139.4394  167.0842 C.3     1  UNL1        0.0992
     26 N         139.8105  140.2816  167.7586 N.3     1  UNL1       -0.2687
     27 C         141.1216  140.8806  167.3436 C.3     1  UNL1        0.0761
     28 C         141.2843  141.4726  168.7122 C.3     1  UNL1        0.0592
     29 C         141.2399  141.9635  170.1289 C.3     1  UNL1        0.0372
     30 C         142.4819  142.7660  170.3804 C.3     1  UNL1        0.1423
     31 O         143.2940  142.7710  169.1192 O.3     1  UNL1       -0.3537
     32 C         142.5537  141.9716  168.0882 C.3     1  UNL1        0.1448
     33 C         139.9732  140.8735  169.1272 C.3     1  UNL1        0.0761
@<TRIPOS>BOND
     1     1     2    2
     2     2     7    1
     3     7     8   ar
     4     8     9   ar
     5     9    10   ar
     6    10    12    1
     7    12    13   ar
     8    13    14   ar
     9    14    15   ar
    10    15    16   ar
    11    16    17   ar
    12    10    11   ar
    13     2     3   am
    14     3     4    1
    15     4     5    1
    16     5    18    1
    17    18    19    1
    18    19    20   ar
    19    20    21   ar
    20    21    22   ar
    21    22    25    1
    22    25    26    1
    23    26    27    1
    24    27    28    1
    25    28    29    1
    26    29    30    1
    27    30    31    1
    28    31    32    1
    29    28    33    1
    30    22    23   ar
    31    23    24   ar
    32     5     6    1
    33    11     7   ar
    34     6     3    1
    35    17    12   ar
    36    24    19   ar
    37    33    26    1
    38    32    28    1
@<TRIPOS>MOLECULE
*****
 33 38 0 0 0
SMALL
GASTEIGER

@<TRIPOS>ATOM
      1 O         140.0634  139.9205  156.0862 O.2     1  UNL1       -0.2647
      2 C         140.3700  138.9771  157.2114 C.2     1  UNL1        0.3047
      3 N         139.6578  139.1185  158.5239 N.am    1  UNL1       -0.2647
      4 C         138.6130  140.0465  159.0692 C.3     1  UNL1        0.1391
      5 C         138.6506  139.3185  160.3802 C.3     1  UNL1        0.2052
      6 C         139.6954  138.3905  159.8349 C.3     1  UNL1        0.1391
      7 C         141.3890  137.8923  157.0241 C.ar    1  UNL1        0.3043
      8 N         142.8553  137.9992  157.3213 N.ar    1  UNL1       -0.1021
      9 N         143.4930  136.6831  156.9876 N.ar    1  UNL1       -0.1068
     10 C         142.4208  135.7629  156.4841 C.ar    1  UNL1        0.2501
     11 O         141.1204  136.5102  156.5067 O.2     1  UNL1       -0.4122
     12 C         142.6149  134.3444  156.0367 C.ar    1  UNL1        0.0551
     13 C         141.4780  133.5937  155.4091 C.ar    1  UNL1        0.0047
     14 C         141.6721  132.1752  154.9617 C.ar    1  UNL1        0.0002
     15 C         143.0031  131.5074  155.1418 C.ar    1  UNL1        0.0000
     16 C         144.1400  132.2581  155.7694 C.ar    1  UNL1        0.0002
     17 C         143.9459  133.6766  156.2168 C.ar    1  UNL1        0.0047
     18 O         137.9384  139.4599  161.6927 O.3     1  UNL1       -0.4756
     19 C         138.4863  140.3735  162.7487 C.ar    1  UNL1        0.1385
     20 C         137.5844  141.3614  163.4273 C.ar    1  UNL1        0.0366
     21 C         138.1322  142.2751  164.4832 C.ar    1  UNL1        0.0002
     22 C         139.5820  142.2007  164.8606 C.ar    1  UNL1       -0.0059
     23 C         140.4840  141.2128  164.1820 C.ar    1  UNL1        0.0002
     24 C         139.9362  140.2992  163.1261 C.ar    1  UNL1        0.0366
     25 C         140.1300  143.1144  165.9166 C.3     1  UNL1        0.0992
     26 N         140.2492  142.6366  167.3335 N.3     1  UNL1       -0.2687
     27 C         140.3033  143.3027  168.6764 C.3     1  UNL1        0.0761
     28 C         140.4177  141.9610  169.3373 C.3     1  UNL1        0.0592
     29 C         140.5222  140.5316  169.7799 C.3     1  UNL1        0.0372
     30 C         140.6224  140.5160  171.2764 C.3     1  UNL1        0.1423
     31 O         140.5798  141.9357  171.7588 O.3     1  UNL1       -0.3537
     32 C         140.4533  142.8288  170.5603 C.3     1  UNL1        0.1448
     33 C         140.3636  141.2949  167.9944 C.3     1  UNL1        0.0761
@<TRIPOS>BOND
     1     1     2    2
     2     2     7    1
     3     7     8   ar
     4     8     9   ar
     5     9    10   ar
     6    10    12    1
     7    12    13   ar
     8    13    14   ar
     9    14    15   ar
    10    15    16   ar
    11    16    17   ar
    12    10    11   ar
    13     2     3   am
    14     3     4    1
    15     4     5    1
    16     5    18    1
    17    18    19    1
    18    19    20   ar
    19    20    21   ar
    20    21    22   ar
    21    22    25    1
    22    25    26    1
    23    26    27    1
    24    27    28    1
    25    28    29    1
    26    29    30    1
    27    30    31    1
    28    31    32    1
    29    28    33    1
    30    22    23   ar
    31    23    24   ar
    32     5     6    1
    33    11     7   ar
    34     6     3    1
    35    17    12   ar
    36    24    19   ar
    37    33    26    1
    38    32    28    1
@<TRIPOS>MOLECULE
*****
 33 38 0 0 0
SMALL
GASTEIGER

@<TRIPOS>ATOM
      1 O         141.9204  143.3269  157.8329 O.2     1  UNL1       -0.2647
      2 C         140.4232  143.3699  157.7524 C.2     1  UNL1        0.3047
      3 N         139.6024  142.3677  158.5087 N.am    1  UNL1       -0.2647
      4 C         139.9094  141.2149  159.4180 C.3     1  UNL1        0.1391
      5 C         138.4415  140.9505  159.5783 C.3     1  UNL1        0.2052
      6 C         138.1345  142.1033  158.6690 C.3     1  UNL1        0.1391
      7 C         139.7467  144.4149  156.9156 C.ar    1  UNL1        0.3043
      8 N         138.6742  144.1697  155.8960 N.ar    1  UNL1       -0.1021
      9 N         138.2887  145.4918  155.3017 N.ar    1  UNL1       -0.1068
     10 C         139.1228  146.5542  155.9539 C.ar    1  UNL1        0.2501
     11 O         140.0240  145.8886  156.9514 O.2     1  UNL1       -0.4122
     12 C         139.0659  148.0241  155.6603 C.ar    1  UNL1        0.0551
     13 C         139.6242  148.5540  154.3729 C.ar    1  UNL1        0.0047
     14 C         139.5673  150.0238  154.0794 C.ar    1  UNL1        0.0002
     15 C         138.9519  150.9639  155.0732 C.ar    1  UNL1        0.0000
     16 C         138.3936  150.4340  156.3606 C.ar    1  UNL1        0.0002
     17 C         138.4505  148.9641  156.6542 C.ar    1  UNL1        0.0047
     18 O         137.6207  139.9484  160.3346 O.3     1  UNL1       -0.4756
     19 C         137.9667  139.6147  161.7555 C.ar    1  UNL1        0.1385
     20 C         138.5319  138.2669  162.0931 C.ar    1  UNL1        0.0366
     21 C         138.8779  137.9332  163.5139 C.ar    1  UNL1        0.0002
     22 C         138.6587  138.9473  164.5972 C.ar    1  UNL1       -0.0059
     23 C         138.0935  140.2951  164.2596 C.ar    1  UNL1        0.0002
     24 C         137.7475  140.6288  162.8387 C.ar    1  UNL1        0.0366
     25 C         139.0047  138.6136  166.0182 C.3     1  UNL1        0.0992
     26 N         139.4010  139.7037  166.9694 N.3     1  UNL1       -0.2687
     27 C         140.1395  141.0033  166.8450 C.3     1  UNL1        0.0761
     28 C         139.9613  141.2452  168.3146 C.3     1  UNL1        0.0592
     29 C         139.6698  141.2808  169.7856 C.3     1  UNL1        0.0372
     30 C         140.2470  142.5486  170.3419 C.3     1  UNL1        0.1423
     31 O         140.8952  143.2966  169.2148 O.3     1  UNL1       -0.3537
     32 C         140.7186  142.4910  167.9618 C.3     1  UNL1        0.1448
     33 C         139.2228  139.9455  168.4390 C.3     1  UNL1        0.0761
@<TRIPOS>BOND
     1     1     2    2
     2     2     7    1
     3     7     8   ar
     4     8     9   ar
     5     9    10   ar
     6    10    12    1
     7    12    13   ar
     8    13    14   ar
     9    14    15   ar
    10    15    16   ar
    11    16    17   ar
    12    10    11   ar
    13     2     3   am
    14     3     4    1
    15     4     5    1
    16     5    18    1
    17    18    19    1
    18    19    20   ar
    19    20    21   ar
    20    21    22   ar
    21    22    25    1
    22    25    26    1
    23    26    27    1
    24    27    28    1
    25    28    29    1
    26    29    30    1
    27    30    31    1
    28    31    32    1
    29    28    33    1
    30    22    23   ar
    31    23    24   ar
    32     5     6    1
    33    11     7   ar
    34     6     3    1
    35    17    12   ar
    36    24    19   ar
    37    33    26    1
    38    32    28    1
@<TRIPOS>MOLECULE
*****
 33 38 0 0 0
SMALL
GASTEIGER

@<TRIPOS>ATOM
      1 O         140.0489  137.9259  157.2059 O.2     1  UNL1       -0.2647
      2 C         141.4707  137.8420  157.6764 C.2     1  UNL1        0.3047
      3 N         141.9504  138.7403  158.7778 N.am    1  UNL1       -0.2647
      4 C         141.3245  139.8106  159.6221 C.3     1  UNL1        0.1391
      5 C         142.6288  140.0106  160.3355 C.3     1  UNL1        0.2052
      6 C         143.2547  138.9403  159.4912 C.3     1  UNL1        0.1391
      7 C         142.4129  136.8600  157.0456 C.ar    1  UNL1        0.3043
      8 N         143.4474  137.1739  156.0057 N.ar    1  UNL1       -0.1021
      9 N         144.1599  135.8996  155.6613 N.ar    1  UNL1       -0.1068
     10 C         143.5658  134.7983  156.4883 C.ar    1  UNL1        0.2501
     11 O         142.4861  135.3919  157.3439 O.2     1  UNL1       -0.4122
     12 C         143.9789  133.3564  156.4641 C.ar    1  UNL1        0.0551
     13 C         143.7539  132.5324  155.2310 C.ar    1  UNL1        0.0047
     14 C         144.1670  131.0907  155.2069 C.ar    1  UNL1        0.0002
     15 C         144.8050  130.4728  156.4157 C.ar    1  UNL1        0.0000
     16 C         145.0299  131.2968  157.6488 C.ar    1  UNL1        0.0002
     17 C         144.6169  132.7386  157.6729 C.ar    1  UNL1        0.0047
     18 O         143.1085  140.9088  161.4369 O.3     1  UNL1       -0.4756
     19 C         143.0465  140.4463  162.8625 C.ar    1  UNL1        0.1385
     20 C         141.7710  139.8802  163.4125 C.ar    1  UNL1        0.0366
     21 C         141.7089  139.4177  164.8380 C.ar    1  UNL1        0.0002
     22 C         142.9225  139.5213  165.7136 C.ar    1  UNL1       -0.0059
     23 C         144.1980  140.0875  165.1635 C.ar    1  UNL1        0.0002
     24 C         144.2601  140.5500  163.7380 C.ar    1  UNL1        0.0366
     25 C         142.8604  139.0588  167.1392 C.3     1  UNL1        0.0992
     26 N         142.2070  139.9198  168.1793 N.3     1  UNL1       -0.2687
     27 C         142.3480  140.0813  169.6639 C.3     1  UNL1        0.0761
     28 C         141.2829  141.1374  169.6501 C.3     1  UNL1        0.0592
     29 C         140.2089  142.1553  169.4043 C.3     1  UNL1        0.0372
     30 C         139.8510  142.7786  170.7209 C.3     1  UNL1        0.1423
     31 O         140.7038  142.1460  171.7804 O.3     1  UNL1       -0.3537
     32 C         141.5888  141.1317  171.1186 C.3     1  UNL1        0.1448
     33 C         141.1419  140.9759  168.1655 C.3     1  UNL1        0.0761
@<TRIPOS>BOND
     1     1     2    2
     2     2     7    1
     3     7     8   ar
     4     8     9   ar
     5     9    10   ar
     6    10    12    1
     7    12    13   ar
     8    13    14   ar
     9    14    15   ar
    10    15    16   ar
    11    16    17   ar
    12    10    11   ar
    13     2     3   am
    14     3     4    1
    15     4     5    1
    16     5    18    1
    17    18    19    1
    18    19    20   ar
    19    20    21   ar
    20    21    22   ar
    21    22    25    1
    22    25    26    1
    23    26    27    1
    24    27    28    1
    25    28    29    1
    26    29    30    1
    27    30    31    1
    28    31    32    1
    29    28    33    1
    30    22    23   ar
    31    23    24   ar
    32     5     6    1
    33    11     7   ar
    34     6     3    1
    35    17    12   ar
    36    24    19   ar
    37    33    26    1
    38    32    28    1
@<TRIPOS>MOLECULE
*****
 33 38 0 0 0
SMALL
GASTEIGER

@<TRIPOS>ATOM
      1 O         140.3536  138.2411  158.1584 O.2     1  UNL1       -0.2647
      2 C         141.8420  138.4063  158.0727 C.2     1  UNL1        0.3047
      3 N         142.5024  139.5946  158.7066 N.am    1  UNL1       -0.2647
      4 C         142.0237  140.7851  159.4836 C.3     1  UNL1        0.1391
      5 C         143.4364  141.2751  159.6031 C.3     1  UNL1        0.2052
      6 C         143.9151  140.0846  158.8261 C.3     1  UNL1        0.1391
      7 C         142.6701  137.3833  157.3531 C.ar    1  UNL1        0.3043
      8 N         143.6345  137.6562  156.2371 N.ar    1  UNL1       -0.1021
      9 N         144.2396  136.3494  155.8175 N.ar    1  UNL1       -0.1068
     10 C         143.6492  135.2689  156.6741 C.ar    1  UNL1        0.2501
     11 O         142.6792  135.9079  157.6232 O.2     1  UNL1       -0.4122
     12 C         143.9721  133.8061  156.5955 C.ar    1  UNL1        0.0551
     13 C         144.6195  133.1173  157.7601 C.ar    1  UNL1        0.0047
     14 C         144.9424  131.6546  157.6815 C.ar    1  UNL1        0.0002
     15 C         144.6179  130.8807  156.4382 C.ar    1  UNL1        0.0000
     16 C         143.9705  131.5695  155.2735 C.ar    1  UNL1        0.0002
     17 C         143.6476  133.0322  155.3522 C.ar    1  UNL1        0.0047
     18 O         144.0968  142.4634  160.2370 O.3     1  UNL1       -0.4756
     19 C         144.0847  142.6212  161.7286 C.ar    1  UNL1        0.1385
     20 C         145.1928  142.0369  162.5536 C.ar    1  UNL1        0.0366
     21 C         145.1807  142.1946  164.0452 C.ar    1  UNL1        0.0002
     22 C         144.0604  142.9366  164.7118 C.ar    1  UNL1       -0.0059
     23 C         142.9523  143.5209  163.8868 C.ar    1  UNL1        0.0002
     24 C         142.9644  143.3632  162.3952 C.ar    1  UNL1        0.0366
     25 C         144.0483  143.0944  166.2035 C.3     1  UNL1        0.0992
     26 N         143.0979  142.2854  167.0356 N.3     1  UNL1       -0.2687
     27 C         141.8763  141.4623  166.7521 C.3     1  UNL1        0.0761
     28 C         141.7538  141.1413  168.2122 C.3     1  UNL1        0.0592
     29 C         141.8238  140.9530  169.6987 C.3     1  UNL1        0.0372
     30 C         140.6797  140.0739  170.1089 C.3     1  UNL1        0.1423
     31 O         139.9027  139.7188  168.8760 O.3     1  UNL1       -0.3537
     32 C         140.5665  140.3785  167.7037 C.3     1  UNL1        0.1448
     33 C         142.9753  141.9644  168.4957 C.3     1  UNL1        0.0761
@<TRIPOS>BOND
     1     1     2    2
     2     2     7    1
     3     7     8   ar
     4     8     9   ar
     5     9    10   ar
     6    10    12    1
     7    12    13   ar
     8    13    14   ar
     9    14    15   ar
    10    15    16   ar
    11    16    17   ar
    12    10    11   ar
    13     2     3   am
    14     3     4    1
    15     4     5    1
    16     5    18    1
    17    18    19    1
    18    19    20   ar
    19    20    21   ar
    20    21    22   ar
    21    22    25    1
    22    25    26    1
    23    26    27    1
    24    27    28    1
    25    28    29    1
    26    29    30    1
    27    30    31    1
    28    31    32    1
    29    28    33    1
    30    22    23   ar
    31    23    24   ar
    32     5     6    1
    33    11     7   ar
    34     6     3    1
    35    17    12   ar
    36    24    19   ar
    37    33    26    1
    38    32    28    1
@<TRIPOS>MOLECULE
*****
 33 38 0 0 0
SMALL
GASTEIGER

@<TRIPOS>ATOM
      1 O         141.3992  142.9001  155.8823 O.2     1  UNL1       -0.2647
      2 C         140.9807  144.0829  156.7044 C.2     1  UNL1        0.3047
      3 N         141.4390  144.2071  158.1273 N.am    1  UNL1       -0.2647
      4 C         142.2919  143.3799  159.0430 C.3     1  UNL1        0.1391
      5 C         142.0872  144.3828  160.1396 C.3     1  UNL1        0.2052
      6 C         141.2343  145.2100  159.2239 C.3     1  UNL1        0.1391
      7 C         140.1039  145.1415  156.1038 C.ar    1  UNL1        0.3043
      8 N         138.7148  144.9401  155.5750 N.ar    1  UNL1       -0.1021
      9 N         138.2147  146.2614  155.0709 N.ar    1  UNL1       -0.1068
     10 C         139.2946  147.2793  155.2883 C.ar    1  UNL1        0.2501
     11 O         140.4623  146.5871  155.9267 O.2     1  UNL1       -0.4122
     12 C         139.2201  148.7341  154.9302 C.ar    1  UNL1        0.0551
     13 C         138.5865  149.7084  155.8784 C.ar    1  UNL1        0.0047
     14 C         138.5121  151.1631  155.5202 C.ar    1  UNL1        0.0002
     15 C         139.0712  151.6435  154.2138 C.ar    1  UNL1        0.0000
     16 C         139.7048  150.6691  153.2656 C.ar    1  UNL1        0.0002
     17 C         139.7792  149.2144  153.6237 C.ar    1  UNL1        0.0047
     18 O         142.5455  144.5070  161.5624 O.3     1  UNL1       -0.4756
     19 C         141.8066  143.7906  162.6536 C.ar    1  UNL1        0.1385
     20 C         141.2298  144.5643  163.8019 C.ar    1  UNL1        0.0366
     21 C         140.4909  143.8480  164.8932 C.ar    1  UNL1        0.0002
     22 C         140.3287  142.3578  164.8360 C.ar    1  UNL1       -0.0059
     23 C         140.9055  141.5841  163.6877 C.ar    1  UNL1        0.0002
     24 C         141.6445  142.3005  162.5965 C.ar    1  UNL1        0.0366
     25 C         139.5898  141.6414  165.9273 C.3     1  UNL1        0.0992
     26 N         140.1506  141.6112  167.3182 N.3     1  UNL1       -0.2687
     27 C         140.4599  142.6453  168.3598 C.3     1  UNL1        0.0761
     28 C         140.9437  141.5685  169.2852 C.3     1  UNL1        0.0592
     29 C         141.3732  140.3431  170.0362 C.3     1  UNL1        0.0372
     30 C         141.8684  140.7757  171.3844 C.3     1  UNL1        0.1423
     31 O         141.7450  142.2683  171.4666 O.3     1  UNL1       -0.3537
     32 C         141.1735  142.7583  170.1692 C.3     1  UNL1        0.1448
     33 C         140.6344  140.5344  168.2436 C.3     1  UNL1        0.0761
@<TRIPOS>BOND
     1     1     2    2
     2     2     7    1
     3     7     8   ar
     4     8     9   ar
     5     9    10   ar
     6    10    12    1
     7    12    13   ar
     8    13    14   ar
     9    14    15   ar
    10    15    16   ar
    11    16    17   ar
    12    10    11   ar
    13     2     3   am
    14     3     4    1
    15     4     5    1
    16     5    18    1
    17    18    19    1
    18    19    20   ar
    19    20    21   ar
    20    21    22   ar
    21    22    25    1
    22    25    26    1
    23    26    27    1
    24    27    28    1
    25    28    29    1
    26    29    30    1
    27    30    31    1
    28    31    32    1
    29    28    33    1
    30    22    23   ar
    31    23    24   ar
    32     5     6    1
    33    11     7   ar
    34     6     3    1
    35    17    12   ar
    36    24    19   ar
    37    33    26    1
    38    32    28    1
@<TRIPOS>MOLECULE
*****
 33 38 0 0 0
SMALL
GASTEIGER

@<TRIPOS>ATOM
      1 O         145.5894  140.5442  163.7406 O.2     1  UNL1       -0.2647
      2 C         144.1059  140.3392  163.8249 C.2     1  UNL1        0.3047
      3 N         143.2759  140.3436  162.5754 N.am    1  UNL1       -0.2647
      4 C         143.5616  140.5159  161.1129 C.3     1  UNL1        0.1391
      5 C         142.1022  140.3498  160.8083 C.3     1  UNL1        0.2052
      6 C         141.8166  140.1775  162.2708 C.3     1  UNL1        0.1391
      7 C         143.4522  140.1298  165.1587 C.ar    1  UNL1        0.3043
      8 N         143.4538  138.8562  165.9510 N.ar    1  UNL1       -0.1021
      9 N         142.6848  139.0965  167.2162 N.ar    1  UNL1       -0.1068
     10 C         142.2079  140.5185  167.2058 C.ar    1  UNL1        0.2501
     11 O         142.6822  141.1572  165.9342 O.2     1  UNL1       -0.4122
     12 C         141.3987  141.1850  168.2788 C.ar    1  UNL1        0.0551
     13 C         141.2300  142.6755  168.2743 C.ar    1  UNL1        0.0047
     14 C         140.4209  143.3419  169.3472 C.ar    1  UNL1        0.0002
     15 C         139.7805  142.5179  170.4246 C.ar    1  UNL1        0.0000
     16 C         139.9491  141.0274  170.4291 C.ar    1  UNL1        0.0002
     17 C         140.7583  140.3610  169.3562 C.ar    1  UNL1        0.0047
     18 O         141.2723  140.3541  159.5588 O.3     1  UNL1       -0.4756
     19 C         141.3698  139.2134  158.5898 C.ar    1  UNL1        0.1385
     20 C         142.7123  138.6548  158.2214 C.ar    1  UNL1        0.0366
     21 C         142.8099  137.5141  157.2524 C.ar    1  UNL1        0.0002
     22 C         141.5648  136.9319  156.6516 C.ar    1  UNL1       -0.0059
     23 C         140.2223  137.4904  157.0200 C.ar    1  UNL1        0.0002
     24 C         140.1247  138.6311  157.9890 C.ar    1  UNL1        0.0366
     25 C         141.6623  135.7910  155.6825 C.3     1  UNL1        0.0992
     26 N         142.3132  134.5057  156.1001 N.3     1  UNL1       -0.2687
     27 C         142.0235  133.0503  155.8820 C.3     1  UNL1        0.0761
     28 C         143.2338  132.6881  156.6907 C.3     1  UNL1        0.0592
     29 C         144.4745  132.5581  157.5235 C.3     1  UNL1        0.0372
     30 C         144.7657  131.0968  157.6963 C.3     1  UNL1        0.1423
     31 O         143.7050  130.3237  156.9702 O.3     1  UNL1       -0.3537
     32 C         142.7582  131.3072  156.3487 C.3     1  UNL1        0.1448
     33 C         143.5236  134.1436  156.9088 C.3     1  UNL1        0.0761
@<TRIPOS>BOND
     1     1     2    2
     2     2     7    1
     3     7     8   ar
     4     8     9   ar
     5     9    10   ar
     6    10    12    1
     7    12    13   ar
     8    13    14   ar
     9    14    15   ar
    10    15    16   ar
    11    16    17   ar
    12    10    11   ar
    13     2     3   am
    14     3     4    1
    15     4     5    1
    16     5    18    1
    17    18    19    1
    18    19    20   ar
    19    20    21   ar
    20    21    22   ar
    21    22    25    1
    22    25    26    1
    23    26    27    1
    24    27    28    1
    25    28    29    1
    26    29    30    1
    27    30    31    1
    28    31    32    1
    29    28    33    1
    30    22    23   ar
    31    23    24   ar
    32     5     6    1
    33    11     7   ar
    34     6     3    1
    35    17    12   ar
    36    24    19   ar
    37    33    26    1
    38    32    28    1
@<TRIPOS>MOLECULE
*****
 33 38 0 0 0
SMALL
GASTEIGER

@<TRIPOS>ATOM
      1 O         137.5788  139.2049  160.9972 O.2     1  UNL1       -0.2647
      2 C         139.0216  138.8102  161.1091 C.2     1  UNL1        0.3047
      3 N         139.8691  138.7086  159.8757 N.am    1  UNL1       -0.2647
      4 C         139.6364  138.9175  158.4086 C.3     1  UNL1        0.1391
      5 C         141.0678  138.5649  158.1313 C.3     1  UNL1        0.2052
      6 C         141.3006  138.3560  159.5984 C.3     1  UNL1        0.1391
      7 C         139.6169  138.5171  162.4544 C.ar    1  UNL1        0.3043
      8 N         140.3633  137.2732  162.8361 N.ar    1  UNL1       -0.1021
      9 N         140.7780  137.4037  164.2717 N.ar    1  UNL1       -0.1068
     10 C         140.2880  138.7282  164.7771 C.ar    1  UNL1        0.2501
     11 O         139.5704  139.4163  163.6540 O.2     1  UNL1       -0.4122
     12 C         140.4816  139.2696  166.1626 C.ar    1  UNL1        0.0551
     13 C         141.8665  139.4898  166.6951 C.ar    1  UNL1        0.0047
     14 C         142.0601  140.0312  168.0805 C.ar    1  UNL1        0.0002
     15 C         140.8687  140.3524  168.9335 C.ar    1  UNL1        0.0000
     16 C         139.4838  140.1321  168.4010 C.ar    1  UNL1        0.0002
     17 C         139.2903  139.5908  167.0156 C.ar    1  UNL1        0.0047
     18 O         141.9154  138.4633  156.8979 O.3     1  UNL1       -0.4756
     19 C         142.1368  137.1298  156.2478 C.ar    1  UNL1        0.1385
     20 C         140.9700  136.3522  155.7149 C.ar    1  UNL1        0.0366
     21 C         141.1914  135.0187  155.0649 C.ar    1  UNL1        0.0002
     22 C         142.5796  134.4627  154.9477 C.ar    1  UNL1       -0.0059
     23 C         143.7464  135.2402  155.4806 C.ar    1  UNL1        0.0002
     24 C         143.5251  136.5738  156.1307 C.ar    1  UNL1        0.0366
     25 C         142.8010  133.1290  154.2976 C.3     1  UNL1        0.0992
     26 N         143.2903  131.9691  155.1132 N.3     1  UNL1       -0.2687
     27 C         144.0881  130.7318  154.8257 C.3     1  UNL1        0.0761
     28 C         143.9822  130.3287  156.2666 C.3     1  UNL1        0.0592
     29 C         143.7527  130.1241  157.7347 C.3     1  UNL1        0.0372
     30 C         144.4155  128.8386  158.1327 C.3     1  UNL1        0.1423
     31 O         145.0546  128.2488  156.9105 O.3     1  UNL1       -0.3537
     32 C         144.7867  129.1697  155.7572 C.3     1  UNL1        0.1448
     33 C         143.1843  131.5659  156.5541 C.3     1  UNL1        0.0761
@<TRIPOS>BOND
     1     1     2    2
     2     2     7    1
     3     7     8   ar
     4     8     9   ar
     5     9    10   ar
     6    10    12    1
     7    12    13   ar
     8    13    14   ar
     9    14    15   ar
    10    15    16   ar
    11    16    17   ar
    12    10    11   ar
    13     2     3   am
    14     3     4    1
    15     4     5    1
    16     5    18    1
    17    18    19    1
    18    19    20   ar
    19    20    21   ar
    20    21    22   ar
    21    22    25    1
    22    25    26    1
    23    26    27    1
    24    27    28    1
    25    28    29    1
    26    29    30    1
    27    30    31    1
    28    31    32    1
    29    28    33    1
    30    22    23   ar
    31    23    24   ar
    32     5     6    1
    33    11     7   ar
    34     6     3    1
    35    17    12   ar
    36    24    19   ar
    37    33    26    1
    38    32    28    1
