@<TRIPOS>MOLECULE
*****
 42 45 0 0 0
SMALL
GASTEIGER

@<TRIPOS>ATOM
      1 N         143.4256  138.6474  165.2212 N.am    1  UNL1       -0.2662
      2 C         142.9195  139.7920  166.0482 C.2     1  UNL1        0.3083
      3 O         142.4853  141.0640  165.3823 O.2     1  UNL1       -0.2521
      4 N         142.8477  139.6645  167.5410 N.am    1  UNL1       -0.2643
      5 H         143.7106  137.8125  165.6582 H       1  UNL1        0.1565
      6 H         143.1327  138.8297  167.9781 H       1  UNL1        0.1566
      7 C         143.6411  139.0298  160.7427 C.ar    1  UNL1        0.1409
      8 C         144.5189  139.8814  161.6112 C.ar    1  UNL1        0.0383
      9 C         144.4471  139.7539  163.1041 C.ar    1  UNL1        0.0201
     10 C         143.4974  138.7749  163.7284 C.ar    1  UNL1        0.0795
     11 C         142.6196  137.9234  162.8598 C.ar    1  UNL1        0.1565
     12 F         141.6700  136.9444  163.4841 F       1  UNL1       -0.2028
     13 C         142.6914  138.0509  161.3670 C.ar    1  UNL1        0.0678
     14 O         143.7129  139.1573  159.2498 O.3     1  UNL1       -0.4754
     15 C         142.6690  139.9431  158.5131 C.3     1  UNL1        0.2054
     16 N         141.2445  143.8838  160.1536 N.3     1  UNL1       -0.2727
     17 C         142.6596  143.7367  159.6785 C.3     1  UNL1        0.0722
     18 C         143.1344  142.4231  159.1317 C.3     1  UNL1        0.0211
     19 C         142.1941  141.2567  159.0599 C.3     1  UNL1        0.0465
     20 C         140.7790  141.4038  159.5350 C.3     1  UNL1        0.0211
     21 C         140.3042  142.7174  160.0818 C.3     1  UNL1        0.0722
     22 C         140.7696  145.1974  160.7004 C.3     1  UNL1        0.0720
     23 C         138.9998  145.5275  162.5735 C.3     1  UNL1        0.0014
     24 C         140.4257  145.3240  162.1549 C.3     1  UNL1        0.0160
     25 C         141.5078  145.2472  163.1910 C.3     1  UNL1        0.0014
     26 C         142.3416  140.8090  168.3680 C.ar    1  UNL1        0.1058
     27 C         143.3059  141.6624  169.1375 C.ar    1  UNL1        0.0211
     28 C         142.7999  142.8069  169.9644 C.ar    1  UNL1        0.0222
     29 C         141.3295  143.0981  170.0220 C.ar    1  UNL1        0.1022
     30 N         140.3653  142.2448  169.2527 N.ar    1  UNL1       -0.2088
     31 C         140.8713  141.1002  168.4256 C.ar    1  UNL1        0.2434
     32 O         139.9070  140.2469  167.6563 O.3     1  UNL1       -0.4354
     33 C         139.3062  140.7579  166.3804 C.ar    1  UNL1        0.1432
     34 C         139.5101  142.1877  165.9752 C.ar    1  UNL1        0.0372
     35 C         138.9092  142.6986  164.6993 C.ar    1  UNL1        0.0031
     36 C         138.1045  141.7798  163.8286 C.ar    1  UNL1       -0.0001
     37 C         137.9006  140.3500  164.2337 C.ar    1  UNL1       -0.0013
     38 C         138.5014  139.8390  165.5096 C.ar    1  UNL1        0.0118
     39 C         138.2975  138.4093  165.9148 C.3     1  UNL1        0.0218
     40 C         137.5556  138.8616  167.1374 C.3     1  UNL1        0.0045
     41 C         139.0395  137.9570  164.6921 C.3     1  UNL1        0.0045
     42 C         138.0937  136.9795  166.3199 C.3     1  UNL1        0.0045
@<TRIPOS>BOND
     1    23    24    1
     2    24    25    1
     3    24    22    1
     4    22    16    1
     5    16    17    1
     6    17    18    1
     7    18    19    1
     8    19    15    1
     9    15    14    1
    10    14     7    1
    11     7     8   ar
    12     8     9   ar
    13     9    10   ar
    14    10     1    1
    15     1     2   am
    16     2     3    2
    17     2     4   am
    18     4    26    1
    19    26    27   ar
    20    27    28   ar
    21    28    29   ar
    22    29    30   ar
    23    30    31   ar
    24    31    32    1
    25    32    33    1
    26    33    34   ar
    27    34    35   ar
    28    35    36   ar
    29    36    37   ar
    30    37    38   ar
    31    38    39    1
    32    39    40    1
    33    39    41    1
    34    39    42    1
    35    10    11   ar
    36    11    12    1
    37    11    13   ar
    38    19    20    1
    39    20    21    1
    40    21    16    1
    41    13     7   ar
    42    31    26   ar
    43    38    33   ar
    44     1     5    1
    45     4     6    1
@<TRIPOS>MOLECULE
*****
 42 45 0 0 0
SMALL
GASTEIGER

@<TRIPOS>ATOM
      1 N         140.4131  140.9009  161.1104 N.am    1  UNL1       -0.2662
      2 C         140.2569  140.3718  162.5053 C.2     1  UNL1        0.3083
      3 O         140.8206  139.0293  162.8656 O.2     1  UNL1       -0.2521
      4 N         139.5371  141.1852  163.5398 N.am    1  UNL1       -0.2643
      5 H         140.0431  141.7821  160.8739 H       1  UNL1        0.1565
      6 H         139.1671  142.0663  163.3033 H       1  UNL1        0.1566
      7 C         142.5727  138.4607  158.0069 C.ar    1  UNL1        0.1409
      8 C         141.0733  138.4577  158.0535 C.ar    1  UNL1        0.0383
      9 C         140.3535  139.2711  159.0880 C.ar    1  UNL1        0.0201
     10 C         141.1329  140.0875  160.0759 C.ar    1  UNL1        0.0795
     11 C         142.6322  140.0905  160.0293 C.ar    1  UNL1        0.1565
     12 F         143.4116  140.9069  161.0172 F       1  UNL1       -0.2028
     13 C         143.3520  139.2771  158.9948 C.ar    1  UNL1        0.0678
     14 O         143.2925  137.6473  156.9724 O.3     1  UNL1       -0.4754
     15 C         142.5235  136.7194  156.0794 C.3     1  UNL1        0.2054
     16 N         142.7341  132.2730  156.7387 N.3     1  UNL1       -0.2727
     17 C         141.8190  132.8332  155.6906 C.3     1  UNL1        0.0722
     18 C         141.7488  134.3154  155.4708 C.3     1  UNL1        0.0211
     19 C         142.5937  135.2373  156.2992 C.3     1  UNL1        0.0465
     20 C         143.5088  134.6770  157.3473 C.3     1  UNL1        0.0211
     21 C         143.5790  133.1949  157.5671 C.3     1  UNL1        0.0722
     22 C         142.8044  130.7908  156.9585 C.3     1  UNL1        0.0720
     23 C         144.5344  128.9285  157.4957 C.3     1  UNL1        0.0014
     24 C         144.0546  130.0392  156.6092 C.3     1  UNL1        0.0160
     25 C         144.8250  130.3984  155.3732 C.3     1  UNL1        0.0014
     26 C         139.3809  140.6561  164.9346 C.ar    1  UNL1        0.1058
     27 C         138.2159  139.7752  165.2766 C.ar    1  UNL1        0.0211
     28 C         138.0597  139.2461  166.6714 C.ar    1  UNL1        0.0222
     29 C         139.0684  139.5978  167.7243 C.ar    1  UNL1        0.1022
     30 N         140.2334  140.4787  167.3824 N.ar    1  UNL1       -0.2088
     31 C         140.3896  141.0078  165.9876 C.ar    1  UNL1        0.2434
     32 O         141.5546  141.8887  165.6457 O.3     1  UNL1       -0.4354
     33 C         142.8265  141.2836  165.1298 C.ar    1  UNL1        0.1432
     34 C         143.0906  139.8191  165.3181 C.ar    1  UNL1        0.0372
     35 C         144.3625  139.2140  164.8022 C.ar    1  UNL1        0.0031
     36 C         145.3702  140.0733  164.0981 C.ar    1  UNL1       -0.0001
     37 C         145.1061  141.5379  163.9098 C.ar    1  UNL1       -0.0013
     38 C         143.8343  142.1430  164.4256 C.ar    1  UNL1        0.0118
     39 C         143.5701  143.6075  164.2373 C.3     1  UNL1        0.0218
     40 C         144.4652  143.9184  165.4001 C.3     1  UNL1        0.0045
     41 C         142.6751  143.2966  163.0745 C.3     1  UNL1        0.0045
     42 C         143.3060  145.0720  164.0490 C.3     1  UNL1        0.0045
@<TRIPOS>BOND
     1    23    24    1
     2    24    25    1
     3    24    22    1
     4    22    16    1
     5    16    17    1
     6    17    18    1
     7    18    19    1
     8    19    15    1
     9    15    14    1
    10    14     7    1
    11     7     8   ar
    12     8     9   ar
    13     9    10   ar
    14    10     1    1
    15     1     2   am
    16     2     3    2
    17     2     4   am
    18     4    26    1
    19    26    27   ar
    20    27    28   ar
    21    28    29   ar
    22    29    30   ar
    23    30    31   ar
    24    31    32    1
    25    32    33    1
    26    33    34   ar
    27    34    35   ar
    28    35    36   ar
    29    36    37   ar
    30    37    38   ar
    31    38    39    1
    32    39    40    1
    33    39    41    1
    34    39    42    1
    35    10    11   ar
    36    11    12    1
    37    11    13   ar
    38    19    20    1
    39    20    21    1
    40    21    16    1
    41    13     7   ar
    42    31    26   ar
    43    38    33   ar
    44     1     5    1
    45     4     6    1
@<TRIPOS>MOLECULE
*****
 42 45 0 0 0
SMALL
GASTEIGER

@<TRIPOS>ATOM
      1 N         139.2189  139.0289  161.1400 N.am    1  UNL1       -0.2662
      2 C         139.4445  140.2374  161.9997 C.2     1  UNL1        0.3083
      3 O         140.6890  141.0571  161.8295 O.2     1  UNL1       -0.2521
      4 N         138.4254  140.6260  163.0295 N.am    1  UNL1       -0.2643
      5 H         138.4020  138.4909  161.2517 H       1  UNL1        0.1565
      6 H         137.6086  140.0879  163.1412 H       1  UNL1        0.1566
      7 C         142.2761  137.8631  158.0506 C.ar    1  UNL1        0.1409
      8 C         140.9041  138.2931  157.6231 C.ar    1  UNL1        0.0383
      9 C         139.8850  138.6817  158.6529 C.ar    1  UNL1        0.0201
     10 C         140.2380  138.6403  160.1102 C.ar    1  UNL1        0.0795
     11 C         141.6099  138.2104  160.5377 C.ar    1  UNL1        0.1565
     12 F         141.9629  138.1690  161.9950 F       1  UNL1       -0.2028
     13 C         142.6290  137.8218  159.5079 C.ar    1  UNL1        0.0678
     14 O         143.2951  137.4745  157.0208 O.3     1  UNL1       -0.4754
     15 C         142.8999  136.6019  155.8665 C.3     1  UNL1        0.2054
     16 N         142.6753  132.1386  156.3936 N.3     1  UNL1       -0.2727
     17 C         143.6834  132.9354  157.1674 C.3     1  UNL1        0.0722
     18 C         143.7583  134.4232  156.9917 C.3     1  UNL1        0.0211
     19 C         142.8251  135.1142  156.0422 C.3     1  UNL1        0.0465
     20 C         141.8170  134.3174  155.2684 C.3     1  UNL1        0.0211
     21 C         141.7421  132.8296  155.4441 C.3     1  UNL1        0.0722
     22 C         142.6004  130.6508  156.5693 C.3     1  UNL1        0.0720
     23 C         144.8011  129.5011  155.8043 C.3     1  UNL1        0.0014
     24 C         143.8396  129.8707  156.8947 C.3     1  UNL1        0.0160
     25 C         144.1173  129.4601  158.3105 C.3     1  UNL1        0.0014
     26 C         138.6509  141.8343  163.8891 C.ar    1  UNL1        0.1058
     27 C         138.0321  143.1481  163.5134 C.ar    1  UNL1        0.0211
     28 C         138.2577  144.3565  164.3730 C.ar    1  UNL1        0.0222
     29 C         139.1019  144.2511  165.6083 C.ar    1  UNL1        0.1022
     30 N         139.7207  142.9374  165.9841 N.ar    1  UNL1       -0.2088
     31 C         139.4952  141.7290  165.1244 C.ar    1  UNL1        0.2434
     32 O         140.1140  140.4152  165.5002 O.3     1  UNL1       -0.4354
     33 C         140.5957  140.1868  166.9022 C.ar    1  UNL1        0.1432
     34 C         139.6227  140.2138  168.0434 C.ar    1  UNL1        0.0372
     35 C         140.1045  139.9854  169.4454 C.ar    1  UNL1        0.0031
     36 C         141.5593  139.7300  169.7063 C.ar    1  UNL1       -0.0001
     37 C         142.5325  139.7030  168.5651 C.ar    1  UNL1       -0.0013
     38 C         142.0507  139.9314  167.1630 C.ar    1  UNL1        0.0118
     39 C         143.0238  139.9045  166.0219 C.3     1  UNL1        0.0218
     40 C         142.8506  138.4188  165.9093 C.3     1  UNL1        0.0045
     41 C         143.1969  141.3901  166.1344 C.3     1  UNL1        0.0045
     42 C         143.9969  139.8775  164.8807 C.3     1  UNL1        0.0045
@<TRIPOS>BOND
     1    23    24    1
     2    24    25    1
     3    24    22    1
     4    22    16    1
     5    16    17    1
     6    17    18    1
     7    18    19    1
     8    19    15    1
     9    15    14    1
    10    14     7    1
    11     7     8   ar
    12     8     9   ar
    13     9    10   ar
    14    10     1    1
    15     1     2   am
    16     2     3    2
    17     2     4   am
    18     4    26    1
    19    26    27   ar
    20    27    28   ar
    21    28    29   ar
    22    29    30   ar
    23    30    31   ar
    24    31    32    1
    25    32    33    1
    26    33    34   ar
    27    34    35   ar
    28    35    36   ar
    29    36    37   ar
    30    37    38   ar
    31    38    39    1
    32    39    40    1
    33    39    41    1
    34    39    42    1
    35    10    11   ar
    36    11    12    1
    37    11    13   ar
    38    19    20    1
    39    20    21    1
    40    21    16    1
    41    13     7   ar
    42    31    26   ar
    43    38    33   ar
    44     1     5    1
    45     4     6    1
@<TRIPOS>MOLECULE
*****
 42 45 0 0 0
SMALL
GASTEIGER

@<TRIPOS>ATOM
      1 N         138.1825  138.6011  161.2879 N.am    1  UNL1       -0.2662
      2 C         139.2738  138.9961  160.3375 C.2     1  UNL1        0.3083
      3 O         140.5492  139.5852  160.8631 O.2     1  UNL1       -0.2521
      4 N         139.0896  138.8019  158.8616 N.am    1  UNL1       -0.2643
      5 H         137.3454  138.2144  160.9430 H       1  UNL1        0.1565
      6 H         138.2525  138.4152  158.5167 H       1  UNL1        0.1566
      7 C         138.7350  139.1836  165.7157 C.ar    1  UNL1        0.1409
      8 C         139.0905  137.8714  165.0818 C.ar    1  UNL1        0.0383
      9 C         138.9063  137.6772  163.6058 C.ar    1  UNL1        0.0201
     10 C         138.3667  138.7953  162.7639 C.ar    1  UNL1        0.0795
     11 C         138.0113  140.1074  163.3978 C.ar    1  UNL1        0.1565
     12 F         137.4717  141.2253  162.5559 F       1  UNL1       -0.2028
     13 C         138.1955  140.3015  164.8738 C.ar    1  UNL1        0.0678
     14 O         138.9192  139.3777  167.1917 O.3     1  UNL1       -0.4754
     15 C         140.1653  140.0304  167.7125 C.3     1  UNL1        0.2054
     16 N         143.7369  140.5306  165.0212 N.3     1  UNL1       -0.2727
     17 C         142.7982  141.6793  165.2429 C.3     1  UNL1        0.0722
     18 C         141.6076  141.5126  166.1400 C.3     1  UNL1        0.0211
     19 C         141.3558  140.1971  166.8154 C.3     1  UNL1        0.0465
     20 C         142.2945  139.0484  166.5937 C.3     1  UNL1        0.0211
     21 C         143.4851  139.2152  165.6966 C.3     1  UNL1        0.0722
     22 C         144.9274  140.6973  164.1241 C.3     1  UNL1        0.0720
     23 C         144.1362  139.8029  161.8167 C.3     1  UNL1        0.0014
     24 C         144.7337  140.8975  162.6502 C.3     1  UNL1        0.0160
     25 C         145.1376  142.1925  162.0097 C.3     1  UNL1        0.0014
     26 C         140.1808  139.1968  157.9113 C.ar    1  UNL1        0.1058
     27 C         141.0312  138.1430  157.2660 C.ar    1  UNL1        0.0211
     28 C         142.1224  138.5379  156.3157 C.ar    1  UNL1        0.0222
     29 C         142.3633  139.9867  156.0105 C.ar    1  UNL1        0.1022
     30 N         141.5129  141.0405  156.6556 N.ar    1  UNL1       -0.2088
     31 C         140.4216  140.6456  157.6061 C.ar    1  UNL1        0.2434
     32 O         139.5712  141.6994  158.2512 O.3     1  UNL1       -0.4354
     33 C         139.8374  143.1498  157.9767 C.ar    1  UNL1        0.1432
     34 C         139.3852  143.7640  156.6852 C.ar    1  UNL1        0.0372
     35 C         139.6514  145.2145  156.4107 C.ar    1  UNL1        0.0031
     36 C         140.3699  146.0507  157.4277 C.ar    1  UNL1       -0.0001
     37 C         140.8222  145.4365  158.7194 C.ar    1  UNL1       -0.0013
     38 C         140.5559  143.9861  158.9939 C.ar    1  UNL1        0.0118
     39 C         141.0082  143.3719  160.2855 C.3     1  UNL1        0.0218
     40 C         142.3484  143.0810  159.6779 C.3     1  UNL1        0.0045
     41 C         139.6680  143.6627  160.8930 C.3     1  UNL1        0.0045
     42 C         141.4604  142.7577  161.5770 C.3     1  UNL1        0.0045
@<TRIPOS>BOND
     1    23    24    1
     2    24    25    1
     3    24    22    1
     4    22    16    1
     5    16    17    1
     6    17    18    1
     7    18    19    1
     8    19    15    1
     9    15    14    1
    10    14     7    1
    11     7     8   ar
    12     8     9   ar
    13     9    10   ar
    14    10     1    1
    15     1     2   am
    16     2     3    2
    17     2     4   am
    18     4    26    1
    19    26    27   ar
    20    27    28   ar
    21    28    29   ar
    22    29    30   ar
    23    30    31   ar
    24    31    32    1
    25    32    33    1
    26    33    34   ar
    27    34    35   ar
    28    35    36   ar
    29    36    37   ar
    30    37    38   ar
    31    38    39    1
    32    39    40    1
    33    39    41    1
    34    39    42    1
    35    10    11   ar
    36    11    12    1
    37    11    13   ar
    38    19    20    1
    39    20    21    1
    40    21    16    1
    41    13     7   ar
    42    31    26   ar
    43    38    33   ar
    44     1     5    1
    45     4     6    1
@<TRIPOS>MOLECULE
*****
 42 45 0 0 0
SMALL
GASTEIGER

@<TRIPOS>ATOM
      1 N         138.4617  140.3551  160.6341 N.am    1  UNL1       -0.2662
      2 C         139.4273  141.3765  160.1102 C.2     1  UNL1        0.3083
      3 O         140.3889  142.0484  161.0450 O.2     1  UNL1       -0.2521
      4 N         139.4312  141.7261  158.6515 N.am    1  UNL1       -0.2643
      5 H         137.8306  139.9141  160.0206 H       1  UNL1        0.1565
      6 H         138.8000  141.2851  158.0380 H       1  UNL1        0.1566
      7 C         138.4501  139.3065  165.0102 C.ar    1  UNL1        0.1409
      8 C         137.7962  140.5722  164.5406 C.ar    1  UNL1        0.0383
      9 C         137.8001  140.9217  163.0819 C.ar    1  UNL1        0.0201
     10 C         138.4579  140.0056  162.0928 C.ar    1  UNL1        0.0795
     11 C         139.1117  138.7400  162.5625 C.ar    1  UNL1        0.1565
     12 F         139.7694  137.8239  161.5736 F       1  UNL1       -0.2028
     13 C         139.1078  138.3904  164.0213 C.ar    1  UNL1        0.0678
     14 O         138.4463  138.9570  166.4690 O.3     1  UNL1       -0.4754
     15 C         139.3173  139.7171  167.4246 C.3     1  UNL1        0.2054
     16 N         142.8981  141.9743  165.8971 N.3     1  UNL1       -0.2727
     17 C         142.9890  140.4962  166.1356 C.3     1  UNL1        0.0722
     18 C         141.7954  139.7438  166.6448 C.3     1  UNL1        0.0211
     19 C         140.5109  140.4695  166.9155 C.3     1  UNL1        0.0465
     20 C         140.4200  141.9476  166.6770 C.3     1  UNL1        0.0211
     21 C         141.6136  142.7000  166.1678 C.3     1  UNL1        0.0722
     22 C         144.0917  142.7267  165.3880 C.3     1  UNL1        0.0720
     23 C         145.6998  141.4750  163.7764 C.3     1  UNL1        0.0014
     24 C         144.6025  142.4728  164.0007 C.3     1  UNL1        0.0160
     25 C         144.0160  143.2167  162.8376 C.3     1  UNL1        0.0014
     26 C         140.3967  142.7474  158.1276 C.ar    1  UNL1        0.1058
     27 C         140.0839  144.2091  158.2534 C.ar    1  UNL1        0.0211
     28 C         141.0494  145.2305  157.7295 C.ar    1  UNL1        0.0222
     29 C         142.3277  144.7903  157.0797 C.ar    1  UNL1        0.1022
     30 N         142.6405  143.3287  156.9538 N.ar    1  UNL1       -0.2088
     31 C         141.6749  142.3072  157.4778 C.ar    1  UNL1        0.2434
     32 O         141.9877  140.8456  157.3520 O.3     1  UNL1       -0.4354
     33 C         142.5471  140.0948  158.5238 C.ar    1  UNL1        0.1432
     34 C         143.3171  140.8248  159.5841 C.ar    1  UNL1        0.0372
     35 C         143.8765  140.0739  160.7559 C.ar    1  UNL1        0.0031
     36 C         143.6659  138.5930  160.8675 C.ar    1  UNL1       -0.0001
     37 C         142.8960  137.8629  159.8072 C.ar    1  UNL1       -0.0013
     38 C         142.3366  138.6137  158.6353 C.ar    1  UNL1        0.0118
     39 C         141.5667  137.8837  157.5751 C.3     1  UNL1        0.0218
     40 C         142.8488  137.5594  156.8673 C.3     1  UNL1        0.0045
     41 C         140.2845  138.2080  158.2828 C.3     1  UNL1        0.0045
     42 C         140.7967  137.1537  156.5148 C.3     1  UNL1        0.0045
@<TRIPOS>BOND
     1    23    24    1
     2    24    25    1
     3    24    22    1
     4    22    16    1
     5    16    17    1
     6    17    18    1
     7    18    19    1
     8    19    15    1
     9    15    14    1
    10    14     7    1
    11     7     8   ar
    12     8     9   ar
    13     9    10   ar
    14    10     1    1
    15     1     2   am
    16     2     3    2
    17     2     4   am
    18     4    26    1
    19    26    27   ar
    20    27    28   ar
    21    28    29   ar
    22    29    30   ar
    23    30    31   ar
    24    31    32    1
    25    32    33    1
    26    33    34   ar
    27    34    35   ar
    28    35    36   ar
    29    36    37   ar
    30    37    38   ar
    31    38    39    1
    32    39    40    1
    33    39    41    1
    34    39    42    1
    35    10    11   ar
    36    11    12    1
    37    11    13   ar
    38    19    20    1
    39    20    21    1
    40    21    16    1
    41    13     7   ar
    42    31    26   ar
    43    38    33   ar
    44     1     5    1
    45     4     6    1
@<TRIPOS>MOLECULE
*****
 42 45 0 0 0
SMALL
GASTEIGER

@<TRIPOS>ATOM
      1 N         143.6707  139.1643  164.9692 N.am    1  UNL1       -0.2662
      2 C         143.0831  140.1909  165.8916 C.2     1  UNL1        0.3083
      3 O         142.5778  141.4918  165.3416 O.2     1  UNL1       -0.2521
      4 N         143.0007  139.9166  167.3640 N.am    1  UNL1       -0.2643
      5 H         144.0023  138.3105  165.3301 H       1  UNL1        0.1565
      6 H         143.3323  139.0628  167.7250 H       1  UNL1        0.1566
      7 C         143.9178  139.9872  160.5519 C.ar    1  UNL1        0.1409
      8 C         143.0385  138.8838  161.0612 C.ar    1  UNL1        0.0383
      9 C         142.9561  138.6095  162.5336 C.ar    1  UNL1        0.0201
     10 C         143.7531  139.4386  163.4967 C.ar    1  UNL1        0.0795
     11 C         144.6323  140.5420  162.9874 C.ar    1  UNL1        0.1565
     12 F         145.4291  141.3711  163.9505 F       1  UNL1       -0.2028
     13 C         144.7146  140.8163  161.5150 C.ar    1  UNL1        0.0678
     14 O         144.0001  140.2615  159.0795 O.3     1  UNL1       -0.4754
     15 C         142.8046  140.0261  158.2047 C.3     1  UNL1        0.2054
     16 N         142.6807  136.4475  155.4793 N.3     1  UNL1       -0.2727
     17 C         143.6639  137.5511  155.2238 C.3     1  UNL1        0.0722
     18 C         143.7052  138.7440  156.1323 C.3     1  UNL1        0.0211
     19 C         142.7633  138.8332  157.2963 C.3     1  UNL1        0.0465
     20 C         141.7801  137.7296  157.5517 C.3     1  UNL1        0.0211
     21 C         141.7388  136.5367  156.6432 C.3     1  UNL1        0.0722
     22 C         142.6394  135.2546  154.5708 C.3     1  UNL1        0.0720
     23 C         143.8661  133.3787  155.8846 C.3     1  UNL1        0.0014
     24 C         142.6549  133.8707  155.1489 C.3     1  UNL1        0.0160
     25 C         141.4593  132.9785  154.9914 C.3     1  UNL1        0.0014
     26 C         142.4131  140.9431  168.2864 C.ar    1  UNL1        0.1058
     27 C         143.3143  141.8161  169.1087 C.ar    1  UNL1        0.0211
     28 C         142.7267  142.8426  170.0311 C.ar    1  UNL1        0.0222
     29 C         141.2379  142.9963  170.1314 C.ar    1  UNL1        0.1022
     30 N         140.3368  142.1234  169.3092 N.ar    1  UNL1       -0.2088
     31 C         140.9244  141.0968  168.3867 C.ar    1  UNL1        0.2434
     32 O         140.0232  140.2239  167.5646 O.3     1  UNL1       -0.4354
     33 C         139.3678  140.7727  166.3320 C.ar    1  UNL1        0.1432
     34 C         139.5102  142.2264  165.9908 C.ar    1  UNL1        0.0372
     35 C         138.8548  142.7751  164.7582 C.ar    1  UNL1        0.0031
     36 C         138.0570  141.8702  163.8668 C.ar    1  UNL1       -0.0001
     37 C         137.9146  140.4164  164.2080 C.ar    1  UNL1       -0.0013
     38 C         138.5700  139.8677  165.4406 C.ar    1  UNL1        0.0118
     39 C         138.4276  138.4140  165.7818 C.3     1  UNL1        0.0218
     40 C         139.2796  138.0534  164.6011 C.3     1  UNL1        0.0045
     41 C         137.5757  138.7745  166.9625 C.3     1  UNL1        0.0045
     42 C         138.2853  136.9603  166.1230 C.3     1  UNL1        0.0045
@<TRIPOS>BOND
     1    23    24    1
     2    24    25    1
     3    24    22    1
     4    22    16    1
     5    16    17    1
     6    17    18    1
     7    18    19    1
     8    19    15    1
     9    15    14    1
    10    14     7    1
    11     7     8   ar
    12     8     9   ar
    13     9    10   ar
    14    10     1    1
    15     1     2   am
    16     2     3    2
    17     2     4   am
    18     4    26    1
    19    26    27   ar
    20    27    28   ar
    21    28    29   ar
    22    29    30   ar
    23    30    31   ar
    24    31    32    1
    25    32    33    1
    26    33    34   ar
    27    34    35   ar
    28    35    36   ar
    29    36    37   ar
    30    37    38   ar
    31    38    39    1
    32    39    40    1
    33    39    41    1
    34    39    42    1
    35    10    11   ar
    36    11    12    1
    37    11    13   ar
    38    19    20    1
    39    20    21    1
    40    21    16    1
    41    13     7   ar
    42    31    26   ar
    43    38    33   ar
    44     1     5    1
    45     4     6    1
@<TRIPOS>MOLECULE
*****
 42 45 0 0 0
SMALL
GASTEIGER

@<TRIPOS>ATOM
      1 N         143.5697  140.7862  160.4314 N.am    1  UNL1       -0.2662
      2 C         142.3994  141.5137  161.0242 C.2     1  UNL1        0.3083
      3 O         141.0195  141.2797  160.4848 O.2     1  UNL1       -0.2521
      4 N         142.6092  142.4751  162.1562 N.am    1  UNL1       -0.2643
      5 H         144.4755  140.9397  160.7854 H       1  UNL1        0.1565
      6 H         143.5149  142.6287  162.5102 H       1  UNL1        0.1566
      7 C         142.9404  137.9017  157.0353 C.ar    1  UNL1        0.1409
      8 C         143.4911  139.2705  156.7645 C.ar    1  UNL1        0.0383
      9 C         143.7008  140.2320  157.8965 C.ar    1  UNL1        0.0201
     10 C         143.3600  139.8247  159.2994 C.ar    1  UNL1        0.0795
     11 C         142.8093  138.4559  159.5701 C.ar    1  UNL1        0.1565
     12 F         142.4685  138.0487  160.9729 F       1  UNL1       -0.2028
     13 C         142.5996  137.4945  158.4381 C.ar    1  UNL1        0.0678
     14 O         142.7307  136.9402  155.9032 O.3     1  UNL1       -0.4754
     15 C         141.8531  135.7386  156.0926 C.3     1  UNL1        0.2054
     16 N         143.6949  131.6630  156.5894 N.3     1  UNL1       -0.2727
     17 C         144.3091  132.8513  157.2680 C.3     1  UNL1        0.0722
     18 C         143.6951  134.2099  157.1024 C.3     1  UNL1        0.0211
     19 C         142.4670  134.3801  156.2582 C.3     1  UNL1        0.0465
     20 C         141.8529  133.1917  155.5796 C.3     1  UNL1        0.0211
     21 C         142.4669  131.8332  155.7452 C.3     1  UNL1        0.0722
     22 C         144.3089  130.3044  156.7550 C.3     1  UNL1        0.0720
     23 C         143.6376  129.0087  158.9045 C.3     1  UNL1        0.0014
     24 C         143.5333  129.2070  157.4213 C.3     1  UNL1        0.0160
     25 C         142.6532  128.3079  156.6045 C.3     1  UNL1        0.0014
     26 C         141.4390  143.2026  162.7489 C.ar    1  UNL1        0.1058
     27 C         141.1180  144.5977  162.3009 C.ar    1  UNL1        0.0211
     28 C         139.9478  145.3252  162.8936 C.ar    1  UNL1        0.0222
     29 C         139.0986  144.6577  163.9344 C.ar    1  UNL1        0.1022
     30 N         139.4196  143.2627  164.3825 N.ar    1  UNL1       -0.2088
     31 C         140.5898  142.5351  163.7898 C.ar    1  UNL1        0.2434
     32 O         140.9108  141.1401  164.2378 O.3     1  UNL1       -0.4354
     33 C         140.0581  140.4704  165.2744 C.ar    1  UNL1        0.1432
     34 C         140.2928  140.7449  166.7302 C.ar    1  UNL1        0.0372
     35 C         139.4402  140.0752  167.7667 C.ar    1  UNL1        0.0031
     36 C         138.3528  139.1309  167.3474 C.ar    1  UNL1       -0.0001
     37 C         138.1180  138.8563  165.8916 C.ar    1  UNL1       -0.0013
     38 C         138.9707  139.5260  164.8550 C.ar    1  UNL1        0.0118
     39 C         138.7360  139.2514  163.3992 C.3     1  UNL1        0.0218
     40 C         137.7267  140.3600  163.3528 C.3     1  UNL1        0.0045
     41 C         139.7454  138.1428  163.4456 C.3     1  UNL1        0.0045
     42 C         138.5013  138.9768  161.9434 C.3     1  UNL1        0.0045
@<TRIPOS>BOND
     1    23    24    1
     2    24    25    1
     3    24    22    1
     4    22    16    1
     5    16    17    1
     6    17    18    1
     7    18    19    1
     8    19    15    1
     9    15    14    1
    10    14     7    1
    11     7     8   ar
    12     8     9   ar
    13     9    10   ar
    14    10     1    1
    15     1     2   am
    16     2     3    2
    17     2     4   am
    18     4    26    1
    19    26    27   ar
    20    27    28   ar
    21    28    29   ar
    22    29    30   ar
    23    30    31   ar
    24    31    32    1
    25    32    33    1
    26    33    34   ar
    27    34    35   ar
    28    35    36   ar
    29    36    37   ar
    30    37    38   ar
    31    38    39    1
    32    39    40    1
    33    39    41    1
    34    39    42    1
    35    10    11   ar
    36    11    12    1
    37    11    13   ar
    38    19    20    1
    39    20    21    1
    40    21    16    1
    41    13     7   ar
    42    31    26   ar
    43    38    33   ar
    44     1     5    1
    45     4     6    1
@<TRIPOS>MOLECULE
*****
 42 45 0 0 0
SMALL
GASTEIGER

@<TRIPOS>ATOM
      1 N         143.5012  141.0382  160.4103 N.am    1  UNL1       -0.2662
      2 C         142.3145  141.7483  160.9914 C.2     1  UNL1        0.3083
      3 O         140.9487  141.5227  160.4140 O.2     1  UNL1       -0.2521
      4 N         142.4938  142.6840  162.1500 N.am    1  UNL1       -0.2643
      5 H         144.3977  141.1863  160.7893 H       1  UNL1        0.1565
      6 H         143.3902  142.8321  162.5290 H       1  UNL1        0.1566
      7 C         142.9634  138.2311  156.9346 C.ar    1  UNL1        0.1409
      8 C         143.5254  139.6037  156.7101 C.ar    1  UNL1        0.0383
      9 C         143.7046  140.5394  157.8687 C.ar    1  UNL1        0.0201
     10 C         143.3219  140.1025  159.2517 C.ar    1  UNL1        0.0795
     11 C         142.7600  138.7300  159.4761 C.ar    1  UNL1        0.1565
     12 F         142.3774  138.2932  160.8591 F       1  UNL1       -0.2028
     13 C         142.5808  137.7943  158.3176 C.ar    1  UNL1        0.0678
     14 O         142.7842  137.2954  155.7760 O.3     1  UNL1       -0.4754
     15 C         141.7771  136.1866  155.8563 C.3     1  UNL1        0.2054
     16 N         143.1254  131.9803  156.7161 N.3     1  UNL1       -0.2727
     17 C         143.7921  133.1364  157.4009 C.3     1  UNL1        0.0722
     18 C         143.3427  134.5385  157.1143 C.3     1  UNL1        0.0211
     19 C         142.2266  134.7845  156.1429 C.3     1  UNL1        0.0465
     20 C         141.5599  133.6284  155.4581 C.3     1  UNL1        0.0211
     21 C         142.0093  132.2263  155.7447 C.3     1  UNL1        0.0722
     22 C         143.5749  130.5782  157.0028 C.3     1  UNL1        0.0720
     23 C         142.5673  128.5025  155.8086 C.3     1  UNL1        0.0014
     24 C         143.6222  129.5651  155.8976 C.3     1  UNL1        0.0160
     25 C         144.7245  129.6146  154.8814 C.3     1  UNL1        0.0014
     26 C         141.3072  143.3941  162.7311 C.ar    1  UNL1        0.1058
     27 C         140.8257  144.6756  162.1180 C.ar    1  UNL1        0.0211
     28 C         139.6391  145.3857  162.6991 C.ar    1  UNL1        0.0222
     29 C         138.9339  144.8143  163.8934 C.ar    1  UNL1        0.1022
     30 N         139.4154  143.5328  164.5065 N.ar    1  UNL1       -0.2088
     31 C         140.6020  142.8227  163.9254 C.ar    1  UNL1        0.2434
     32 O         141.0834  141.5412  164.5385 O.3     1  UNL1       -0.4354
     33 C         140.1739  140.7477  165.4292 C.ar    1  UNL1        0.1432
     34 C         139.0107  140.0045  164.8423 C.ar    1  UNL1        0.0372
     35 C         138.1012  139.2111  165.7330 C.ar    1  UNL1        0.0031
     36 C         138.3550  139.1609  167.2105 C.ar    1  UNL1       -0.0001
     37 C         139.5183  139.9041  167.7974 C.ar    1  UNL1       -0.0013
     38 C         140.4278  140.6975  166.9067 C.ar    1  UNL1        0.0118
     39 C         141.5910  141.4407  167.4936 C.3     1  UNL1        0.0218
     40 C         142.4749  140.2549  167.2434 C.3     1  UNL1        0.0045
     41 C         140.7072  142.6266  167.7437 C.3     1  UNL1        0.0045
     42 C         142.7543  142.1839  168.0804 C.3     1  UNL1        0.0045
@<TRIPOS>BOND
     1    23    24    1
     2    24    25    1
     3    24    22    1
     4    22    16    1
     5    16    17    1
     6    17    18    1
     7    18    19    1
     8    19    15    1
     9    15    14    1
    10    14     7    1
    11     7     8   ar
    12     8     9   ar
    13     9    10   ar
    14    10     1    1
    15     1     2   am
    16     2     3    2
    17     2     4   am
    18     4    26    1
    19    26    27   ar
    20    27    28   ar
    21    28    29   ar
    22    29    30   ar
    23    30    31   ar
    24    31    32    1
    25    32    33    1
    26    33    34   ar
    27    34    35   ar
    28    35    36   ar
    29    36    37   ar
    30    37    38   ar
    31    38    39    1
    32    39    40    1
    33    39    41    1
    34    39    42    1
    35    10    11   ar
    36    11    12    1
    37    11    13   ar
    38    19    20    1
    39    20    21    1
    40    21    16    1
    41    13     7   ar
    42    31    26   ar
    43    38    33   ar
    44     1     5    1
    45     4     6    1
@<TRIPOS>MOLECULE
*****
 42 45 0 0 0
SMALL
GASTEIGER

@<TRIPOS>ATOM
      1 N         142.7833  141.2440  160.3058 N.am    1  UNL1       -0.2662
      2 C         141.7812  141.8043  161.2713 C.2     1  UNL1        0.3083
      3 O         140.3221  141.5034  161.0968 O.2     1  UNL1       -0.2521
      4 N         142.2383  142.6655  162.4112 N.am    1  UNL1       -0.2643
      5 H         143.7409  141.4415  160.4203 H       1  UNL1        0.1565
      6 H         143.1960  142.8630  162.5257 H       1  UNL1        0.1566
      7 C         141.4119  138.6603  156.8862 C.ar    1  UNL1        0.1409
      8 C         141.8734  140.0640  156.6275 C.ar    1  UNL1        0.0383
      9 C         142.3305  140.9252  157.7674 C.ar    1  UNL1        0.0201
     10 C         142.3262  140.3828  159.1659 C.ar    1  UNL1        0.0795
     11 C         141.8647  138.9791  159.4245 C.ar    1  UNL1        0.1565
     12 F         141.8604  138.4368  160.8230 F       1  UNL1       -0.2028
     13 C         141.4076  138.1179  158.2846 C.ar    1  UNL1        0.0678
     14 O         140.9548  137.7991  155.7463 O.3     1  UNL1       -0.4754
     15 C         141.9296  136.8957  155.0510 C.3     1  UNL1        0.2054
     16 N         142.7470  132.7837  156.6859 N.3     1  UNL1       -0.2727
     17 C         143.4903  133.9680  157.2288 C.3     1  UNL1        0.0722
     18 C         143.2178  135.3387  156.6838 C.3     1  UNL1        0.0211
     19 C         142.2021  135.5250  155.5960 C.3     1  UNL1        0.0465
     20 C         141.4588  134.3406  155.0531 C.3     1  UNL1        0.0211
     21 C         141.7313  132.9700  155.5980 C.3     1  UNL1        0.0722
     22 C         143.0195  131.4130  157.2309 C.3     1  UNL1        0.0720
     23 C         144.7613  130.4310  155.5721 C.3     1  UNL1        0.0014
     24 C         143.4609  130.3140  156.3104 C.3     1  UNL1        0.0160
     25 C         142.6018  129.0978  156.1283 C.3     1  UNL1        0.0014
     26 C         141.2364  143.2258  163.3766 C.ar    1  UNL1        0.1058
     27 C         140.4882  144.4809  163.0370 C.ar    1  UNL1        0.0211
     28 C         139.4862  145.0412  164.0024 C.ar    1  UNL1        0.0222
     29 C         139.2324  144.3465  165.3074 C.ar    1  UNL1        0.1022
     30 N         139.9805  143.0916  165.6470 N.ar    1  UNL1       -0.2088
     31 C         140.9825  142.5312  164.6816 C.ar    1  UNL1        0.2434
     32 O         141.7306  141.2762  165.0212 O.3     1  UNL1       -0.4354
     33 C         141.2060  139.9451  164.5707 C.ar    1  UNL1        0.1432
     34 C         139.7432  139.7725  164.2873 C.ar    1  UNL1        0.0372
     35 C         139.2185  138.4414  163.8369 C.ar    1  UNL1        0.0031
     36 C         140.1566  137.2829  163.6699 C.ar    1  UNL1       -0.0001
     37 C         141.6195  137.4556  163.9533 C.ar    1  UNL1       -0.0013
     38 C         142.1442  138.7867  164.4037 C.ar    1  UNL1        0.0118
     39 C         143.6070  138.9593  164.6871 C.3     1  UNL1        0.0218
     40 C         143.3794  138.5487  166.1118 C.3     1  UNL1        0.0045
     41 C         143.8345  139.3700  163.2625 C.3     1  UNL1        0.0045
     42 C         145.0697  139.1320  164.9706 C.3     1  UNL1        0.0045
@<TRIPOS>BOND
     1    23    24    1
     2    24    25    1
     3    24    22    1
     4    22    16    1
     5    16    17    1
     6    17    18    1
     7    18    19    1
     8    19    15    1
     9    15    14    1
    10    14     7    1
    11     7     8   ar
    12     8     9   ar
    13     9    10   ar
    14    10     1    1
    15     1     2   am
    16     2     3    2
    17     2     4   am
    18     4    26    1
    19    26    27   ar
    20    27    28   ar
    21    28    29   ar
    22    29    30   ar
    23    30    31   ar
    24    31    32    1
    25    32    33    1
    26    33    34   ar
    27    34    35   ar
    28    35    36   ar
    29    36    37   ar
    30    37    38   ar
    31    38    39    1
    32    39    40    1
    33    39    41    1
    34    39    42    1
    35    10    11   ar
    36    11    12    1
    37    11    13   ar
    38    19    20    1
    39    20    21    1
    40    21    16    1
    41    13     7   ar
    42    31    26   ar
    43    38    33   ar
    44     1     5    1
    45     4     6    1
