@<TRIPOS>MOLECULE
*****
 35 39 0 0 0
SMALL
GASTEIGER

@<TRIPOS>ATOM
      1 N         138.7802  144.0891  163.2850 N.3     1  UNL1       -0.2726
      2 C         137.7571  143.1134  162.7836 C.3     1  UNL1        0.0721
      3 C         137.4521  141.7350  163.2904 C.3     1  UNL1        0.0177
      4 C         138.0948  140.9917  164.4238 C.3     1  UNL1        0.0055
      5 C         138.5958  140.0823  165.5063 C.3     1  UNL1        0.0045
      6 C         139.2013  141.4433  165.3302 C.3     1  UNL1        0.0203
      7 C         139.9384  142.7497  165.3272 C.3     1  UNL1        0.0214
      8 C         139.7510  143.9272  164.4171 C.3     1  UNL1        0.0724
      9 C         140.0816  141.0780  166.4886 C.ar    1  UNL1       -0.0228
     10 C         141.5120  141.5288  166.5149 C.ar    1  UNL1       -0.0043
     11 C         142.3922  141.1635  167.6733 C.ar    1  UNL1        0.0035
     12 C         141.8421  140.3474  168.8052 C.ar    1  UNL1        0.0714
     13 C         140.4116  139.8966  168.7789 C.ar    1  UNL1        0.0035
     14 C         139.5314  140.2619  167.6205 C.ar    1  UNL1       -0.0043
     15 C         142.7222  139.9821  169.9635 C.3     1  UNL1        0.4186
     16 F         143.6025  139.6168  171.1219 F       1  UNL1       -0.1659
     17 F         143.5684  141.1929  169.7023 F       1  UNL1       -0.1659
     18 F         141.8762  138.7714  170.2248 F       1  UNL1       -0.1659
     19 C         138.8406  145.3999  162.5583 C.3     1  UNL1        0.0730
     20 C         140.1203  145.8409  161.9121 C.3     1  UNL1        0.0294
     21 C         140.3690  145.5463  160.4625 C.3     1  UNL1        0.0666
     22 S         141.4533  144.5882  160.0671 S.3     1  UNL1       -0.0756
     23 C         142.7414  141.9564  162.6126 C.ar    1  UNL1        0.2029
     24 N         143.7118  143.0776  162.8388 N.ar    1  UNL1       -0.1250
     25 N         143.3474  144.1999  161.9129 N.ar    1  UNL1       -0.1220
     26 C         142.1518  143.7724  161.1143 C.ar    1  UNL1        0.1933
     27 N         141.7773  142.3858  161.5468 N.ar    1  UNL1       -0.2860
     28 C         140.6385  141.5716  161.0080 C.3     1  UNL1        0.1341
     29 C         141.1385  137.3613  164.6611 C.3     1  UNL1        0.0950
     30 C         141.9993  138.5252  164.2684 C.ar    1  UNL1        0.2060
     31 N         143.4565  138.6899  164.5835 N.ar    1  UNL1       -0.2164
     32 C         143.9119  139.9953  164.0015 C.ar    1  UNL1        0.0996
     33 C         145.2995  140.5596  164.0804 C.3     1  UNL1        0.0556
     34 C         142.7361  140.6373  163.3269 C.ar    1  UNL1        0.1959
     35 O         141.5540  139.7287  163.4918 O.2     1  UNL1       -0.4356
@<TRIPOS>BOND
     1    29    30    1
     2    30    31   ar
     3    31    32   ar
     4    32    33    1
     5    32    34   ar
     6    34    23    1
     7    23    24   ar
     8    24    25   ar
     9    25    26   ar
    10    26    22    1
    11    22    21    1
    12    21    20    1
    13    20    19    1
    14    19     1    1
    15     1     2    1
    16     2     3    1
    17     3     4    1
    18     4     5    1
    19     5     6    1
    20     6     9    1
    21     9    10   ar
    22    10    11   ar
    23    11    12   ar
    24    12    15    1
    25    15    16    1
    26    15    17    1
    27    15    18    1
    28    12    13   ar
    29    13    14   ar
    30     6     7    1
    31     7     8    1
    32    26    27   ar
    33    27    28    1
    34    34    35   ar
    35    35    30   ar
    36    27    23   ar
    37     8     1    1
    38     6     4    1
    39    14     9   ar
@<TRIPOS>MOLECULE
*****
 35 39 0 0 0
SMALL
GASTEIGER

@<TRIPOS>ATOM
      1 N         138.9621  144.0567  163.2631 N.3     1  UNL1       -0.2726
      2 C         137.8756  143.1239  162.8164 C.3     1  UNL1        0.0721
      3 C         137.4963  141.7891  163.3860 C.3     1  UNL1        0.0177
      4 C         138.1096  141.0574  164.5428 C.3     1  UNL1        0.0055
      5 C         138.5710  140.1664  165.6578 C.3     1  UNL1        0.0045
      6 C         139.2539  141.4798  165.4159 C.3     1  UNL1        0.0203
      7 C         140.0674  142.7382  165.3476 C.3     1  UNL1        0.0214
      8 C         139.9376  143.8851  164.3896 C.3     1  UNL1        0.0724
      9 C         140.1273  141.1118  166.5786 C.ar    1  UNL1       -0.0228
     10 C         139.6275  140.1529  167.6181 C.ar    1  UNL1       -0.0043
     11 C         140.5009  139.7849  168.7808 C.ar    1  UNL1        0.0035
     12 C         141.8740  140.3759  168.9039 C.ar    1  UNL1        0.0714
     13 C         142.3739  141.3349  167.8644 C.ar    1  UNL1        0.0035
     14 C         141.5005  141.7028  166.7017 C.ar    1  UNL1       -0.0043
     15 C         142.7474  140.0080  170.0666 C.3     1  UNL1        0.4186
     16 F         143.6209  139.6402  171.2293 F       1  UNL1       -0.1659
     17 F         143.5084  141.2900  169.9006 F       1  UNL1       -0.1659
     18 F         141.9866  138.7260  170.2327 F       1  UNL1       -0.1659
     19 C         139.0900  145.3294  162.4796 C.3     1  UNL1        0.0730
     20 C         140.4150  145.7205  161.8954 C.3     1  UNL1        0.0294
     21 C         140.7664  145.3143  160.4948 C.3     1  UNL1        0.0666
     22 S         141.6551  144.1292  160.2582 S.3     1  UNL1       -0.0756
     23 C         141.2350  140.7750  162.1655 C.ar    1  UNL1        0.2029
     24 N         140.1483  140.6621  161.1377 N.ar    1  UNL1       -0.1250
     25 N         140.1734  141.9048  160.2982 N.ar    1  UNL1       -0.1220
     26 C         141.2756  142.7858  160.8071 C.ar    1  UNL1        0.1933
     27 N         141.9317  142.0875  161.9612 N.ar    1  UNL1       -0.2860
     28 C         143.0825  142.6101  162.7690 C.3     1  UNL1        0.1341
     29 C         143.6077  138.2701  166.1626 C.3     1  UNL1        0.0950
     30 C         142.6573  138.6031  165.0509 C.ar    1  UNL1        0.2060
     31 N         141.4970  137.7651  164.6023 N.ar    1  UNL1       -0.2164
     32 C         140.8229  138.4767  163.4668 C.ar    1  UNL1        0.0996
     33 C         139.6168  137.9951  162.7161 C.3     1  UNL1        0.0556
     34 C         141.5667  139.7545  163.2137 C.ar    1  UNL1        0.1959
     35 O         142.7004  139.8326  164.1928 O.2     1  UNL1       -0.4356
@<TRIPOS>BOND
     1    29    30    1
     2    30    31   ar
     3    31    32   ar
     4    32    33    1
     5    32    34   ar
     6    34    23    1
     7    23    24   ar
     8    24    25   ar
     9    25    26   ar
    10    26    22    1
    11    22    21    1
    12    21    20    1
    13    20    19    1
    14    19     1    1
    15     1     2    1
    16     2     3    1
    17     3     4    1
    18     4     5    1
    19     5     6    1
    20     6     9    1
    21     9    10   ar
    22    10    11   ar
    23    11    12   ar
    24    12    15    1
    25    15    16    1
    26    15    17    1
    27    15    18    1
    28    12    13   ar
    29    13    14   ar
    30     6     7    1
    31     7     8    1
    32    26    27   ar
    33    27    28    1
    34    34    35   ar
    35    35    30   ar
    36    27    23   ar
    37     8     1    1
    38     6     4    1
    39    14     9   ar
@<TRIPOS>MOLECULE
*****
 35 39 0 0 0
SMALL
GASTEIGER

@<TRIPOS>ATOM
      1 N         141.0861  144.6984  162.9934 N.3     1  UNL1       -0.2726
      2 C         142.5700  144.7667  162.7851 C.3     1  UNL1        0.0721
      3 C         143.6604  144.1652  163.6213 C.3     1  UNL1        0.0177
      4 C         143.5363  143.3469  164.8723 C.3     1  UNL1        0.0055
      5 C         143.6361  142.5204  166.1200 C.3     1  UNL1        0.0045
      6 C         142.2910  142.9280  165.5961 C.3     1  UNL1        0.0203
      7 C         140.8624  143.2239  165.2475 C.3     1  UNL1        0.0214
      8 C         140.3261  144.0118  164.0893 C.3     1  UNL1        0.0724
      9 C         141.7321  142.1804  166.7703 C.ar    1  UNL1       -0.0228
     10 C         142.2108  140.7912  167.0718 C.ar    1  UNL1       -0.0043
     11 C         141.6518  140.0436  168.2460 C.ar    1  UNL1        0.0035
     12 C         140.6142  140.6853  169.1187 C.ar    1  UNL1        0.0714
     13 C         140.1355  142.0747  168.8172 C.ar    1  UNL1        0.0035
     14 C         140.6945  142.8221  167.6430 C.ar    1  UNL1       -0.0043
     15 C         140.0553  139.9379  170.2929 C.3     1  UNL1        0.4186
     16 F         139.4962  139.1904  171.4672 F       1  UNL1       -0.1659
     17 F         138.8105  140.7727  170.2317 F       1  UNL1       -0.1659
     18 F         141.3000  139.1030  170.3542 F       1  UNL1       -0.1659
     19 C         140.2519  145.4109  161.9705 C.3     1  UNL1        0.0730
     20 C         140.6895  145.4432  160.5361 C.3     1  UNL1        0.0294
     21 C         141.2352  144.2041  159.8905 C.3     1  UNL1        0.0666
     22 S         140.3128  143.0768  159.5319 S.3     1  UNL1       -0.0756
     23 C         138.6178  141.1217  162.4248 C.ar    1  UNL1        0.2029
     24 N         137.4820  141.9784  161.9495 N.ar    1  UNL1       -0.1250
     25 N         137.9787  142.8150  160.8080 N.ar    1  UNL1       -0.1220
     26 C         139.4215  142.4754  160.5778 C.ar    1  UNL1        0.1933
     27 N         139.8164  141.4288  161.5771 N.ar    1  UNL1       -0.2860
     28 C         141.1721  140.7999  161.7060 C.3     1  UNL1        0.1341
     29 C         138.1043  139.0139  167.2389 C.3     1  UNL1        0.0950
     30 C         138.3283  139.1627  165.7632 C.ar    1  UNL1        0.2060
     31 N         138.6356  138.0532  164.8018 N.ar    1  UNL1       -0.2164
     32 C         138.7814  138.6519  163.4342 C.ar    1  UNL1        0.0996
     33 C         139.0903  137.9026  162.1719 C.3     1  UNL1        0.0556
     34 C         138.5643  140.1315  163.5505 C.ar    1  UNL1        0.1959
     35 O         138.2842  140.4472  164.9899 O.2     1  UNL1       -0.4356
@<TRIPOS>BOND
     1    29    30    1
     2    30    31   ar
     3    31    32   ar
     4    32    33    1
     5    32    34   ar
     6    34    23    1
     7    23    24   ar
     8    24    25   ar
     9    25    26   ar
    10    26    22    1
    11    22    21    1
    12    21    20    1
    13    20    19    1
    14    19     1    1
    15     1     2    1
    16     2     3    1
    17     3     4    1
    18     4     5    1
    19     5     6    1
    20     6     9    1
    21     9    10   ar
    22    10    11   ar
    23    11    12   ar
    24    12    15    1
    25    15    16    1
    26    15    17    1
    27    15    18    1
    28    12    13   ar
    29    13    14   ar
    30     6     7    1
    31     7     8    1
    32    26    27   ar
    33    27    28    1
    34    34    35   ar
    35    35    30   ar
    36    27    23   ar
    37     8     1    1
    38     6     4    1
    39    14     9   ar
@<TRIPOS>MOLECULE
*****
 35 39 0 0 0
SMALL
GASTEIGER

@<TRIPOS>ATOM
      1 N         143.7001  139.4731  163.1231 N.3     1  UNL1       -0.2726
      2 C         144.8439  140.3752  162.7653 C.3     1  UNL1        0.0721
      3 C         145.2851  141.6390  163.4420 C.3     1  UNL1        0.0177
      4 C         144.6917  142.3130  164.6436 C.3     1  UNL1        0.0055
      5 C         144.2595  143.1402  165.8178 C.3     1  UNL1        0.0045
      6 C         143.5103  141.8895  165.4652 C.3     1  UNL1        0.0203
      7 C         142.6307  140.6874  165.2881 C.3     1  UNL1        0.0214
      8 C         142.7151  139.6120  164.2459 C.3     1  UNL1        0.0724
      9 C         142.6373  142.2154  166.6407 C.ar    1  UNL1       -0.0228
     10 C         143.2204  142.2451  168.0224 C.ar    1  UNL1       -0.0043
     11 C         142.3474  142.5710  169.1979 C.ar    1  UNL1        0.0035
     12 C         140.8914  142.8671  168.9916 C.ar    1  UNL1        0.0714
     13 C         140.3084  142.8374  167.6097 C.ar    1  UNL1        0.0035
     14 C         141.1814  142.5115  166.4343 C.ar    1  UNL1       -0.0043
     15 C         140.0184  143.1930  170.1670 C.3     1  UNL1        0.4186
     16 F         139.1454  143.5189  171.3424 F       1  UNL1       -0.1659
     17 F         139.6183  141.7510  170.2695 F       1  UNL1       -0.1659
     18 F         140.4185  144.6350  170.0645 F       1  UNL1       -0.1659
     19 C         143.5170  138.2734  162.2415 C.3     1  UNL1        0.0730
     20 C         143.9014  138.3413  160.7932 C.3     1  UNL1        0.0294
     21 C         142.9123  137.9497  159.7356 C.3     1  UNL1        0.0666
     22 S         141.9467  138.9646  159.1992 S.3     1  UNL1       -0.0756
     23 C         141.3443  142.2437  161.1866 C.ar    1  UNL1        0.2029
     24 N         142.3565  142.6983  160.1774 N.ar    1  UNL1       -0.1250
     25 N         142.7054  141.5253  159.3101 N.ar    1  UNL1       -0.1220
     26 C         141.9087  140.3457  159.7833 C.ar    1  UNL1        0.1933
     27 N         141.0675  140.7898  160.9431 N.ar    1  UNL1       -0.2860
     28 C         140.1165  139.9306  161.7224 C.3     1  UNL1        0.1341
     29 C         137.8673  144.2326  164.6270 C.3     1  UNL1        0.0950
     30 C         139.1204  144.0081  163.8337 C.ar    1  UNL1        0.2060
     31 N         140.3912  144.7963  163.9510 N.ar    1  UNL1       -0.2164
     32 C         141.3789  144.2313  162.9737 C.ar    1  UNL1        0.0996
     33 C         142.7809  144.7182  162.7558 C.3     1  UNL1        0.0556
     34 C         140.7186  143.0939  162.2524 C.ar    1  UNL1        0.1959
     35 O         139.3227  142.9559  162.7840 O.2     1  UNL1       -0.4356
@<TRIPOS>BOND
     1    29    30    1
     2    30    31   ar
     3    31    32   ar
     4    32    33    1
     5    32    34   ar
     6    34    23    1
     7    23    24   ar
     8    24    25   ar
     9    25    26   ar
    10    26    22    1
    11    22    21    1
    12    21    20    1
    13    20    19    1
    14    19     1    1
    15     1     2    1
    16     2     3    1
    17     3     4    1
    18     4     5    1
    19     5     6    1
    20     6     9    1
    21     9    10   ar
    22    10    11   ar
    23    11    12   ar
    24    12    15    1
    25    15    16    1
    26    15    17    1
    27    15    18    1
    28    12    13   ar
    29    13    14   ar
    30     6     7    1
    31     7     8    1
    32    26    27   ar
    33    27    28    1
    34    34    35   ar
    35    35    30   ar
    36    27    23   ar
    37     8     1    1
    38     6     4    1
    39    14     9   ar
@<TRIPOS>MOLECULE
*****
 35 39 0 0 0
SMALL
GASTEIGER

@<TRIPOS>ATOM
      1 N         141.2174  138.2003  162.7648 N.3     1  UNL1       -0.2726
      2 C         139.8449  137.6321  162.9729 C.3     1  UNL1        0.0721
      3 C         138.9280  137.8083  164.1469 C.3     1  UNL1        0.0177
      4 C         139.1570  138.5963  165.4026 C.3     1  UNL1        0.0055
      5 C         139.1815  139.3153  166.7187 C.3     1  UNL1        0.0045
      6 C         140.3596  139.4026  165.7944 C.3     1  UNL1        0.0203
      7 C         141.6302  139.6201  165.0274 C.3     1  UNL1        0.0214
      8 C         142.0120  139.0851  163.6790 C.3     1  UNL1        0.0724
      9 C         140.9781  140.2743  166.8469 C.ar    1  UNL1       -0.0228
     10 C         142.0454  139.7230  167.7452 C.ar    1  UNL1       -0.0043
     11 C         142.6638  140.5947  168.7977 C.ar    1  UNL1        0.0035
     12 C         142.2150  142.0177  168.9518 C.ar    1  UNL1        0.0714
     13 C         141.1477  142.5690  168.0534 C.ar    1  UNL1        0.0035
     14 C         140.5293  141.6973  167.0010 C.ar    1  UNL1       -0.0043
     15 C         142.8334  142.8894  170.0042 C.3     1  UNL1        0.4186
     16 F         143.4519  143.7612  171.0566 F       1  UNL1       -0.1659
     17 F         144.1200  142.1286  169.8783 F       1  UNL1       -0.1659
     18 F         141.5468  143.6503  170.1301 F       1  UNL1       -0.1659
     19 C         141.8835  137.8355  161.4712 C.3     1  UNL1        0.0730
     20 C         143.3804  137.8014  161.3819 C.3     1  UNL1        0.0294
     21 C         144.1056  138.8185  160.5515 C.3     1  UNL1        0.0666
     22 S         143.3569  139.9766  159.9613 S.3     1  UNL1       -0.0756
     23 C         141.9546  142.9560  162.0161 C.ar    1  UNL1        0.2029
     24 N         143.4301  143.2105  162.1065 N.ar    1  UNL1       -0.1250
     25 N         144.1349  142.1254  161.3479 N.ar    1  UNL1       -0.1220
     26 C         143.0951  141.2003  160.7885 C.ar    1  UNL1        0.1933
     27 N         141.7476  141.7137  161.2015 N.ar    1  UNL1       -0.2860
     28 C         140.4252  141.0934  160.8598 C.3     1  UNL1        0.1341
     29 C         138.4940  144.9405  165.4755 C.3     1  UNL1        0.0950
     30 C         139.2849  144.7086  164.2222 C.ar    1  UNL1        0.2060
     31 N         139.1453  145.4707  162.9379 N.ar    1  UNL1       -0.2164
     32 C         140.1283  144.9070  161.9551 C.ar    1  UNL1        0.0996
     33 C         140.3290  145.3722  160.5432 C.3     1  UNL1        0.0556
     34 C         140.8755  143.7964  162.6321 C.ar    1  UNL1        0.1959
     35 O         140.3542  143.6738  164.0333 O.2     1  UNL1       -0.4356
@<TRIPOS>BOND
     1    29    30    1
     2    30    31   ar
     3    31    32   ar
     4    32    33    1
     5    32    34   ar
     6    34    23    1
     7    23    24   ar
     8    24    25   ar
     9    25    26   ar
    10    26    22    1
    11    22    21    1
    12    21    20    1
    13    20    19    1
    14    19     1    1
    15     1     2    1
    16     2     3    1
    17     3     4    1
    18     4     5    1
    19     5     6    1
    20     6     9    1
    21     9    10   ar
    22    10    11   ar
    23    11    12   ar
    24    12    15    1
    25    15    16    1
    26    15    17    1
    27    15    18    1
    28    12    13   ar
    29    13    14   ar
    30     6     7    1
    31     7     8    1
    32    26    27   ar
    33    27    28    1
    34    34    35   ar
    35    35    30   ar
    36    27    23   ar
    37     8     1    1
    38     6     4    1
    39    14     9   ar
@<TRIPOS>MOLECULE
*****
 35 39 0 0 0
SMALL
GASTEIGER

@<TRIPOS>ATOM
      1 N         139.1950  138.8737  163.2997 N.3     1  UNL1       -0.2726
      2 C         140.0468  137.6796  162.9856 C.3     1  UNL1        0.0721
      3 C         141.3186  137.2381  163.6471 C.3     1  UNL1        0.0177
      4 C         142.0527  137.8815  164.7861 C.3     1  UNL1        0.0055
      5 C         142.9338  138.3571  165.9030 C.3     1  UNL1        0.0045
      6 C         141.6963  139.1254  165.5448 C.3     1  UNL1        0.0203
      7 C         140.5178  140.0331  165.3519 C.3     1  UNL1        0.0214
      8 C         139.4046  139.9212  164.3528 C.3     1  UNL1        0.0724
      9 C         142.0909  140.0580  166.6515 C.ar    1  UNL1       -0.0228
     10 C         142.3918  139.5161  168.0174 C.ar    1  UNL1       -0.0043
     11 C         142.7863  140.4486  169.1240 C.ar    1  UNL1        0.0035
     12 C         142.8800  141.9231  168.8647 C.ar    1  UNL1        0.0714
     13 C         142.5790  142.4650  167.4987 C.ar    1  UNL1        0.0035
     14 C         142.1845  141.5324  166.3921 C.ar    1  UNL1       -0.0043
     15 C         143.2745  142.8557  169.9713 C.3     1  UNL1        0.4186
     16 F         143.6690  143.7883  171.0780 F       1  UNL1       -0.1659
     17 F         141.9410  143.5356  169.8737 F       1  UNL1       -0.1659
     18 F         144.6080  142.1758  170.0690 F       1  UNL1       -0.1659
     19 C         137.9719  139.0427  162.4480 C.3     1  UNL1        0.0730
     20 C         138.0846  138.9838  160.9535 C.3     1  UNL1        0.0294
     21 C         137.5203  140.0918  160.1145 C.3     1  UNL1        0.0666
     22 S         138.4242  141.1636  159.5811 S.3     1  UNL1       -0.0756
     23 C         141.0087  142.7970  161.9722 C.ar    1  UNL1        0.2029
     24 N         139.9095  143.8175  161.9927 N.ar    1  UNL1       -0.1250
     25 N         138.8076  143.3298  161.0995 N.ar    1  UNL1       -0.1220
     26 C         139.2257  142.0079  160.5270 C.ar    1  UNL1        0.1933
     27 N         140.5861  141.6787  161.0663 N.ar    1  UNL1       -0.2860
     28 C         141.3838  140.4472  160.7545 C.3     1  UNL1        0.1341
     29 C         145.7450  141.5850  163.9670 C.3     1  UNL1        0.0950
     30 C         144.4803  142.3232  163.6423 C.ar    1  UNL1        0.2060
     31 N         144.1104  143.6938  164.1264 N.ar    1  UNL1       -0.2164
     32 C         142.7650  144.0382  163.5597 C.ar    1  UNL1        0.0996
     33 C         142.0131  145.3161  163.7875 C.3     1  UNL1        0.0556
     34 C         142.3033  142.8803  162.7254 C.ar    1  UNL1        0.1959
     35 O         143.3635  141.8204  162.7764 O.2     1  UNL1       -0.4356
@<TRIPOS>BOND
     1    29    30    1
     2    30    31   ar
     3    31    32   ar
     4    32    33    1
     5    32    34   ar
     6    34    23    1
     7    23    24   ar
     8    24    25   ar
     9    25    26   ar
    10    26    22    1
    11    22    21    1
    12    21    20    1
    13    20    19    1
    14    19     1    1
    15     1     2    1
    16     2     3    1
    17     3     4    1
    18     4     5    1
    19     5     6    1
    20     6     9    1
    21     9    10   ar
    22    10    11   ar
    23    11    12   ar
    24    12    15    1
    25    15    16    1
    26    15    17    1
    27    15    18    1
    28    12    13   ar
    29    13    14   ar
    30     6     7    1
    31     7     8    1
    32    26    27   ar
    33    27    28    1
    34    34    35   ar
    35    35    30   ar
    36    27    23   ar
    37     8     1    1
    38     6     4    1
    39    14     9   ar
@<TRIPOS>MOLECULE
*****
 35 39 0 0 0
SMALL
GASTEIGER

@<TRIPOS>ATOM
      1 N         139.9860  144.5600  159.9923 N.3     1  UNL1       -0.2726
      2 C         140.0810  145.8358  160.7755 C.3     1  UNL1        0.0721
      3 C         139.9119  146.0416  162.2517 C.3     1  UNL1        0.0177
      4 C         139.6063  145.0227  163.3092 C.3     1  UNL1        0.0055
      5 C         139.3082  144.1754  164.5105 C.3     1  UNL1        0.0045
      6 C         139.3941  143.5461  163.1517 C.3     1  UNL1        0.0203
      7 C         139.4353  142.7239  161.8977 C.3     1  UNL1        0.0214
      8 C         139.6987  143.1751  160.4917 C.3     1  UNL1        0.0724
      9 C         139.0939  142.2552  163.8542 C.ar    1  UNL1       -0.0228
     10 C         139.8530  141.8813  165.0928 C.ar    1  UNL1       -0.0043
     11 C         139.5527  140.5904  165.7953 C.ar    1  UNL1        0.0035
     12 C         138.4935  139.6735  165.2593 C.ar    1  UNL1        0.0714
     13 C         137.7345  140.0475  164.0206 C.ar    1  UNL1        0.0035
     14 C         138.0347  141.3383  163.3182 C.ar    1  UNL1       -0.0043
     15 C         138.1933  138.3827  165.9618 C.3     1  UNL1        0.4186
     16 F         137.8931  137.0917  166.6642 F       1  UNL1       -0.1659
     17 F         138.7304  137.6189  164.7877 F       1  UNL1       -0.1659
     18 F         137.6562  139.1463  167.1358 F       1  UNL1       -0.1659
     19 C         140.2078  144.6859  158.5141 C.3     1  UNL1        0.0730
     20 C         141.6029  144.7702  157.9695 C.3     1  UNL1        0.0294
     21 C         142.3907  143.5168  157.7278 C.3     1  UNL1        0.0666
     22 S         143.5501  143.1766  158.6168 S.3     1  UNL1       -0.0756
     23 C         142.9769  141.5727  162.1045 C.ar    1  UNL1        0.2029
     24 N         142.9279  143.0327  162.4452 N.ar    1  UNL1       -0.1250
     25 N         143.1366  143.8112  161.1802 N.ar    1  UNL1       -0.1220
     26 C         143.3146  142.8324  160.0576 C.ar    1  UNL1        0.1933
     27 N         143.2159  141.4489  160.6289 N.ar    1  UNL1       -0.2860
     28 C         143.3353  140.1668  159.8595 C.3     1  UNL1        0.1341
     29 C         143.7309  138.2964  166.1761 C.3     1  UNL1        0.0950
     30 C         143.1618  138.9302  164.9414 C.ar    1  UNL1        0.2060
     31 N         141.9711  138.4440  164.1697 N.ar    1  UNL1       -0.2164
     32 C         141.7569  139.3747  163.0130 C.ar    1  UNL1        0.0996
     33 C         140.6743  139.2635  161.9805 C.3     1  UNL1        0.0556
     34 C         142.8152  140.4361  163.0699 C.ar    1  UNL1        0.1959
     35 O         143.6835  140.1613  164.2618 O.2     1  UNL1       -0.4356
@<TRIPOS>BOND
     1    29    30    1
     2    30    31   ar
     3    31    32   ar
     4    32    33    1
     5    32    34   ar
     6    34    23    1
     7    23    24   ar
     8    24    25   ar
     9    25    26   ar
    10    26    22    1
    11    22    21    1
    12    21    20    1
    13    20    19    1
    14    19     1    1
    15     1     2    1
    16     2     3    1
    17     3     4    1
    18     4     5    1
    19     5     6    1
    20     6     9    1
    21     9    10   ar
    22    10    11   ar
    23    11    12   ar
    24    12    15    1
    25    15    16    1
    26    15    17    1
    27    15    18    1
    28    12    13   ar
    29    13    14   ar
    30     6     7    1
    31     7     8    1
    32    26    27   ar
    33    27    28    1
    34    34    35   ar
    35    35    30   ar
    36    27    23   ar
    37     8     1    1
    38     6     4    1
    39    14     9   ar
@<TRIPOS>MOLECULE
*****
 35 39 0 0 0
SMALL
GASTEIGER

@<TRIPOS>ATOM
      1 N         141.4187  144.3766  160.2437 N.3     1  UNL1       -0.2726
      2 C         140.3946  145.4609  160.4037 C.3     1  UNL1        0.0721
      3 C         139.7309  145.9424  161.6598 C.3     1  UNL1        0.0177
      4 C         139.9274  145.4587  163.0660 C.3     1  UNL1        0.0055
      5 C         139.9718  145.1296  164.5288 C.3     1  UNL1        0.0045
      6 C         140.8360  144.3739  163.5635 C.3     1  UNL1        0.0203
      7 C         141.7727  143.5049  162.7776 C.3     1  UNL1        0.0214
      8 C         142.0320  143.5061  161.3002 C.3     1  UNL1        0.0724
      9 C         141.3202  143.6163  164.7643 C.ar    1  UNL1       -0.0228
     10 C         142.7726  143.2645  164.8936 C.ar    1  UNL1       -0.0043
     11 C         143.2567  142.5069  166.0943 C.ar    1  UNL1        0.0035
     12 C         142.2884  142.1012  167.1657 C.ar    1  UNL1        0.0714
     13 C         140.8359  142.4531  167.0363 C.ar    1  UNL1        0.0035
     14 C         140.3519  143.2106  165.8356 C.ar    1  UNL1       -0.0043
     15 C         142.7725  141.3437  168.3664 C.3     1  UNL1        0.4186
     16 F         143.2565  140.5862  169.5672 F       1  UNL1       -0.1659
     17 F         142.7362  142.6054  169.1769 F       1  UNL1       -0.1659
     18 F         142.8088  140.0820  167.5559 F       1  UNL1       -0.1659
     19 C         141.8921  144.1302  158.8419 C.3     1  UNL1        0.0730
     20 C         141.0137  143.3975  157.8716 C.3     1  UNL1        0.0294
     21 C         140.5283  142.0156  158.1951 C.3     1  UNL1        0.0666
     22 S         139.1317  141.8109  158.7026 S.3     1  UNL1       -0.0756
     23 C         138.7777  141.1243  162.5063 C.ar    1  UNL1        0.2029
     24 N         138.1229  142.4690  162.3924 N.ar    1  UNL1       -0.1250
     25 N         138.1758  142.8899  160.9537 N.ar    1  UNL1       -0.1220
     26 C         138.8633  141.8053  160.1784 C.ar    1  UNL1        0.1933
     27 N         139.2353  140.7141  161.1381 N.ar    1  UNL1       -0.2860
     28 C         139.9410  139.4370  160.7904 C.3     1  UNL1        0.1341
     29 C         137.7250  138.4939  166.9621 C.3     1  UNL1        0.0950
     30 C         138.4616  139.1203  165.8154 C.ar    1  UNL1        0.2060
     31 N         139.9458  139.0920  165.6001 N.ar    1  UNL1       -0.2164
     32 C         140.2448  139.8393  164.3343 C.ar    1  UNL1        0.0996
     33 C         141.6046  140.0580  163.7398 C.3     1  UNL1        0.0556
     34 C         138.9455  140.3294  163.7673 C.ar    1  UNL1        0.1959
     35 O         137.8434  139.8851  164.6828 O.2     1  UNL1       -0.4356
@<TRIPOS>BOND
     1    29    30    1
     2    30    31   ar
     3    31    32   ar
     4    32    33    1
     5    32    34   ar
     6    34    23    1
     7    23    24   ar
     8    24    25   ar
     9    25    26   ar
    10    26    22    1
    11    22    21    1
    12    21    20    1
    13    20    19    1
    14    19     1    1
    15     1     2    1
    16     2     3    1
    17     3     4    1
    18     4     5    1
    19     5     6    1
    20     6     9    1
    21     9    10   ar
    22    10    11   ar
    23    11    12   ar
    24    12    15    1
    25    15    16    1
    26    15    17    1
    27    15    18    1
    28    12    13   ar
    29    13    14   ar
    30     6     7    1
    31     7     8    1
    32    26    27   ar
    33    27    28    1
    34    34    35   ar
    35    35    30   ar
    36    27    23   ar
    37     8     1    1
    38     6     4    1
    39    14     9   ar
@<TRIPOS>MOLECULE
*****
 35 39 0 0 0
SMALL
GASTEIGER

@<TRIPOS>ATOM
      1 N         140.9833  138.5236  160.7329 N.3     1  UNL1       -0.2726
      2 C         139.5472  138.0906  160.7228 C.3     1  UNL1        0.0721
      3 C         138.6049  137.9491  161.8813 C.3     1  UNL1        0.0177
      4 C         138.8660  138.2054  163.3360 C.3     1  UNL1        0.0055
      5 C         138.9136  138.4015  164.8223 C.3     1  UNL1        0.0045
      6 C         140.1339  138.6667  163.9915 C.3     1  UNL1        0.0203
      7 C         141.4538  138.9855  163.3541 C.3     1  UNL1        0.0214
      8 C         141.8319  138.9218  161.9040 C.3     1  UNL1        0.0724
      9 C         140.8001  139.0253  165.2868 C.ar    1  UNL1       -0.0228
     10 C         140.0524  139.8123  166.3219 C.ar    1  UNL1       -0.0043
     11 C         140.7185  140.1709  167.6172 C.ar    1  UNL1        0.0035
     12 C         142.1324  139.7426  167.8772 C.ar    1  UNL1        0.0714
     13 C         142.8801  138.9556  166.8420 C.ar    1  UNL1        0.0035
     14 C         142.2139  138.5970  165.5468 C.ar    1  UNL1       -0.0043
     15 C         142.7985  140.1012  169.1724 C.3     1  UNL1        0.4186
     16 F         143.4647  140.4597  170.4676 F       1  UNL1       -0.1659
     17 F         142.3715  138.7869  169.7558 F       1  UNL1       -0.1659
     18 F         143.2256  141.4154  168.5890 F       1  UNL1       -0.1659
     19 C         141.6604  138.5635  159.3950 C.3     1  UNL1        0.0730
     20 C         141.2700  139.6040  158.3876 C.3     1  UNL1        0.0294
     21 C         142.2103  140.7279  158.0673 C.3     1  UNL1        0.0666
     22 S         141.7761  142.1495  158.2692 S.3     1  UNL1       -0.0756
     23 C         141.5602  143.5013  161.9011 C.ar    1  UNL1        0.2029
     24 N         142.8505  144.1121  161.4407 N.ar    1  UNL1       -0.1250
     25 N         143.0884  143.6801  160.0242 N.ar    1  UNL1       -0.1220
     26 C         141.9452  142.8023  159.6091 C.ar    1  UNL1        0.1933
     27 N         141.0007  142.6918  160.7691 N.ar    1  UNL1       -0.2860
     28 C         139.7213  141.9091  160.7929 C.3     1  UNL1        0.1341
     29 C         138.3136  145.0046  165.7844 C.3     1  UNL1        0.0950
     30 C         139.4463  144.3613  165.0407 C.ar    1  UNL1        0.2060
     31 N         140.5177  143.4996  165.6400 N.ar    1  UNL1       -0.2164
     32 C         141.4401  143.0725  164.5368 C.ar    1  UNL1        0.0996
     33 C         142.6513  142.2005  164.6881 C.3     1  UNL1        0.0556
     34 C         140.9386  143.6703  163.2558 C.ar    1  UNL1        0.1959
     35 O         139.7063  144.4669  163.5673 O.2     1  UNL1       -0.4356
@<TRIPOS>BOND
     1    29    30    1
     2    30    31   ar
     3    31    32   ar
     4    32    33    1
     5    32    34   ar
     6    34    23    1
     7    23    24   ar
     8    24    25   ar
     9    25    26   ar
    10    26    22    1
    11    22    21    1
    12    21    20    1
    13    20    19    1
    14    19     1    1
    15     1     2    1
    16     2     3    1
    17     3     4    1
    18     4     5    1
    19     5     6    1
    20     6     9    1
    21     9    10   ar
    22    10    11   ar
    23    11    12   ar
    24    12    15    1
    25    15    16    1
    26    15    17    1
    27    15    18    1
    28    12    13   ar
    29    13    14   ar
    30     6     7    1
    31     7     8    1
    32    26    27   ar
    33    27    28    1
    34    34    35   ar
    35    35    30   ar
    36    27    23   ar
    37     8     1    1
    38     6     4    1
    39    14     9   ar
