@<TRIPOS>MOLECULE
*****
 25 28 0 0 0
SMALL
GASTEIGER

@<TRIPOS>ATOM
      1 C         139.1932  140.3817  162.3073 C.2     1  UNL1        0.3579
      2 N         138.6850  139.4119  161.2820 N.2     1  UNL1       -0.0354
      3 C         138.3633  138.0015  161.6783 C.2     1  UNL1        0.2392
      4 C         138.5498  137.5608  163.0999 C.2     1  UNL1        0.0975
      5 C         139.0580  138.5305  164.1252 C.2     1  UNL1        0.2357
      6 N         139.3401  138.3852  165.5912 N.2     1  UNL1       -0.0340
      7 C         139.8361  139.7058  166.1010 C.2     1  UNL1        0.3712
      8 N         139.8606  140.6674  164.9500 N.2     1  UNL1       -0.0428
      9 C         139.3797  139.9409  163.7289 C.3     1  UNL1        0.3825
     10 C         139.5156  146.6234  161.5535 C.3     1  UNL1        0.0897
     11 N         139.6875  145.1340  161.5074 N.3     1  UNL1       -0.2679
     12 C         140.7519  144.6301  160.5783 C.3     1  UNL1        0.0765
     13 C         141.1640  143.2133  160.3089 C.3     1  UNL1        0.0681
     14 C         140.6135  141.9503  160.9020 C.3     1  UNL1        0.2036
     15 N         139.5149  141.7922  161.9110 N.pl3   1  UNL1       -0.1887
     16 C         138.6955  142.8581  162.5762 C.3     1  UNL1        0.2195
     17 C         138.7724  144.3453  162.3965 C.3     1  UNL1        0.1236
     18 C         140.2372  140.0112  167.5138 C.ar    1  UNL1        0.0904
     19 C         139.1970  140.0690  168.5930 C.ar    1  UNL1        0.0101
     20 C         139.5982  140.3744  170.0057 C.ar    1  UNL1        0.0322
     21 C         141.0395  140.6220  170.3392 C.ar    1  UNL1        0.1674
     22 F         141.4406  140.9275  171.7520 F       1  UNL1       -0.2018
     23 C         142.0797  140.5642  169.2601 C.ar    1  UNL1        0.1676
     24 F         143.5210  140.8119  169.5936 F       1  UNL1       -0.2018
     25 C         141.6785  140.2588  167.8474 C.ar    1  UNL1        0.0396
@<TRIPOS>BOND
     1    10    11    1
     2    11    12    1
     3    12    13    1
     4    13    14    1
     5    14    15    1
     6    15     1    1
     7     1     2    2
     8     2     3    1
     9     3     4    2
    10     4     5    1
    11     5     6    2
    12     6     7    1
    13     7    18    1
    14    18    19   ar
    15    19    20   ar
    16    20    21   ar
    17    21    22    1
    18    21    23   ar
    19    23    24    1
    20    23    25   ar
    21     7     8    2
    22     8     9    1
    23    15    16    1
    24    16    17    1
    25    17    11    1
    26     9     1    1
    27     9     5    1
    28    25    18   ar
@<TRIPOS>MOLECULE
*****
 25 28 0 0 0
SMALL
GASTEIGER

@<TRIPOS>ATOM
      1 C         139.0653  142.2279  162.9514 C.2     1  UNL1        0.3579
      2 N         138.2126  143.3233  162.3833 N.2     1  UNL1       -0.0354
      3 C         137.8514  144.5079  163.2296 C.2     1  UNL1        0.2392
      4 C         138.3429  144.5970  164.6440 C.2     1  UNL1        0.0975
      5 C         139.1956  143.5015  165.2121 C.2     1  UNL1        0.2357
      6 N         139.8221  143.3149  166.5622 N.2     1  UNL1       -0.0340
      7 C         140.5705  142.0150  166.5503 C.2     1  UNL1        0.3712
      8 N         140.4066  141.3982  165.1928 N.2     1  UNL1       -0.0428
      9 C         139.5568  142.3169  164.3658 C.3     1  UNL1        0.3825
     10 C         141.5344  138.1383  158.8514 C.3     1  UNL1        0.0897
     11 N         140.7485  138.8537  159.9100 N.3     1  UNL1       -0.2679
     12 C         139.6872  138.0425  160.5925 C.3     1  UNL1        0.0765
     13 C         138.7432  138.4629  161.6796 C.3     1  UNL1        0.0681
     14 C         138.6272  139.7984  162.3528 C.3     1  UNL1        0.2036
     15 N         139.4266  141.0432  162.1051 N.pl3   1  UNL1       -0.1887
     16 C         140.5394  141.2601  161.1230 C.3     1  UNL1        0.2195
     17 C         141.1277  140.2856  160.1461 C.3     1  UNL1        0.1236
     18 C         141.3466  141.4340  167.6949 C.ar    1  UNL1        0.0904
     19 C         140.9682  140.0947  168.2545 C.ar    1  UNL1        0.0101
     20 C         141.7443  139.5138  169.3991 C.ar    1  UNL1        0.0322
     21 C         142.8988  140.2720  169.9840 C.ar    1  UNL1        0.1674
     22 F         143.6749  139.6910  171.1287 F       1  UNL1       -0.2018
     23 C         143.2772  141.6112  169.4244 C.ar    1  UNL1        0.1676
     24 F         144.4317  142.3695  170.0094 F       1  UNL1       -0.2018
     25 C         142.5011  142.1922  168.2798 C.ar    1  UNL1        0.0396
@<TRIPOS>BOND
     1    10    11    1
     2    11    12    1
     3    12    13    1
     4    13    14    1
     5    14    15    1
     6    15     1    1
     7     1     2    2
     8     2     3    1
     9     3     4    2
    10     4     5    1
    11     5     6    2
    12     6     7    1
    13     7    18    1
    14    18    19   ar
    15    19    20   ar
    16    20    21   ar
    17    21    22    1
    18    21    23   ar
    19    23    24    1
    20    23    25   ar
    21     7     8    2
    22     8     9    1
    23    15    16    1
    24    16    17    1
    25    17    11    1
    26     9     1    1
    27     9     5    1
    28    25    18   ar
@<TRIPOS>MOLECULE
*****
 25 28 0 0 0
SMALL
GASTEIGER

@<TRIPOS>ATOM
      1 C         139.9477  140.0579  162.7701 C.2     1  UNL1        0.3579
      2 N         139.2489  138.8557  162.2077 N.2     1  UNL1       -0.0354
      3 C         138.8207  137.7431  163.1180 C.2     1  UNL1        0.2392
      4 C         139.0913  137.8326  164.5907 C.2     1  UNL1        0.0975
      5 C         139.7902  139.0348  165.1530 C.2     1  UNL1        0.2357
      6 N         140.1902  139.4003  166.5517 N.2     1  UNL1       -0.0340
      7 C         140.8657  140.7388  166.5059 C.2     1  UNL1        0.3712
      8 N         140.8831  141.2006  165.0789 N.2     1  UNL1       -0.0428
      9 C         140.2184  140.1474  164.2428 C.3     1  UNL1        0.3825
     10 C         140.3828  145.0853  159.0062 C.3     1  UNL1        0.0897
     11 N         140.6090  143.8622  159.8447 N.3     1  UNL1       -0.2679
     12 C         142.0195  143.3537  159.8868 C.3     1  UNL1        0.0765
     13 C         142.5642  142.1669  160.6248 C.3     1  UNL1        0.0681
     14 C         141.8327  141.1952  161.5028 C.3     1  UNL1        0.2036
     15 N         140.3760  141.1706  161.8598 N.pl3   1  UNL1       -0.1887
     16 C         139.2910  142.1114  161.4269 C.3     1  UNL1        0.2195
     17 C         139.3947  143.3093  160.5300 C.3     1  UNL1        0.1236
     18 C         141.4255  141.4846  167.6809 C.ar    1  UNL1        0.0904
     19 C         142.7640  141.1052  168.2416 C.ar    1  UNL1        0.0101
     20 C         143.3237  141.8509  169.4165 C.ar    1  UNL1        0.0322
     21 C         142.5449  142.9762  170.0307 C.ar    1  UNL1        0.1674
     22 F         143.1047  143.7220  171.2057 F       1  UNL1       -0.2018
     23 C         141.2064  143.3557  169.4700 C.ar    1  UNL1        0.1676
     24 F         140.4276  144.4810  170.0843 F       1  UNL1       -0.2018
     25 C         140.6467  142.6099  168.2951 C.ar    1  UNL1        0.0396
@<TRIPOS>BOND
     1    10    11    1
     2    11    12    1
     3    12    13    1
     4    13    14    1
     5    14    15    1
     6    15     1    1
     7     1     2    2
     8     2     3    1
     9     3     4    2
    10     4     5    1
    11     5     6    2
    12     6     7    1
    13     7    18    1
    14    18    19   ar
    15    19    20   ar
    16    20    21   ar
    17    21    22    1
    18    21    23   ar
    19    23    24    1
    20    23    25   ar
    21     7     8    2
    22     8     9    1
    23    15    16    1
    24    16    17    1
    25    17    11    1
    26     9     1    1
    27     9     5    1
    28    25    18   ar
@<TRIPOS>MOLECULE
*****
 25 28 0 0 0
SMALL
GASTEIGER

@<TRIPOS>ATOM
      1 C         143.2618  142.2292  162.2659 C.2     1  UNL1        0.3579
      2 N         144.7444  142.4179  162.1384 N.2     1  UNL1       -0.0354
      3 C         145.6698  141.7791  163.1311 C.2     1  UNL1        0.2392
      4 C         145.1126  140.9515  164.2512 C.2     1  UNL1        0.0975
      5 C         143.6300  140.7628  164.3787 C.2     1  UNL1        0.2357
      6 N         142.7959  140.0073  165.3704 N.2     1  UNL1       -0.0340
      7 C         141.3550  140.1793  164.9907 C.2     1  UNL1        0.3712
      8 N         141.2985  141.0410  163.7642 N.2     1  UNL1       -0.0428
      9 C         142.7046  141.4016  163.3860 C.3     1  UNL1        0.3825
     10 C         139.5097  143.6806  157.4238 C.3     1  UNL1        0.0897
     11 N         140.3275  143.6452  158.6807 N.3     1  UNL1       -0.2679
     12 C         140.2905  144.8902  159.5165 C.3     1  UNL1        0.0765
     13 C         140.9910  145.1670  160.8136 C.3     1  UNL1        0.0681
     14 C         141.9015  144.2670  161.5954 C.3     1  UNL1        0.2036
     15 N         142.3363  142.8681  161.2731 N.pl3   1  UNL1       -0.1887
     16 C         141.9681  142.0235  160.0895 C.3     1  UNL1        0.2195
     17 C         141.0740  142.3694  158.9357 C.3     1  UNL1        0.1236
     18 C         140.1773  139.5925  165.7110 C.ar    1  UNL1        0.0904
     19 C         139.3455  138.5335  165.0502 C.ar    1  UNL1        0.0101
     20 C         138.1679  137.9468  165.7705 C.ar    1  UNL1        0.0322
     21 C         137.8220  138.4191  167.1516 C.ar    1  UNL1        0.1674
     22 F         136.6443  137.8323  167.8719 F       1  UNL1       -0.2018
     23 C         138.6538  139.4781  167.8123 C.ar    1  UNL1        0.1676
     24 F         138.3079  139.9503  169.1934 F       1  UNL1       -0.2018
     25 C         139.8314  140.0648  167.0920 C.ar    1  UNL1        0.0396
@<TRIPOS>BOND
     1    10    11    1
     2    11    12    1
     3    12    13    1
     4    13    14    1
     5    14    15    1
     6    15     1    1
     7     1     2    2
     8     2     3    1
     9     3     4    2
    10     4     5    1
    11     5     6    2
    12     6     7    1
    13     7    18    1
    14    18    19   ar
    15    19    20   ar
    16    20    21   ar
    17    21    22    1
    18    21    23   ar
    19    23    24    1
    20    23    25   ar
    21     7     8    2
    22     8     9    1
    23    15    16    1
    24    16    17    1
    25    17    11    1
    26     9     1    1
    27     9     5    1
    28    25    18   ar
@<TRIPOS>MOLECULE
*****
 25 28 0 0 0
SMALL
GASTEIGER

@<TRIPOS>ATOM
      1 C         140.4984  139.7006  162.7818 C.2     1  UNL1        0.3579
      2 N         139.6687  138.5801  162.2287 N.2     1  UNL1       -0.0354
      3 C         138.9158  137.6750  163.1581 C.2     1  UNL1        0.2392
      4 C         138.9928  137.8903  164.6406 C.2     1  UNL1        0.0975
      5 C         139.8226  139.0107  165.1937 C.2     1  UNL1        0.2357
      6 N         140.0878  139.4645  166.5986 N.2     1  UNL1       -0.0340
      7 C         141.0046  140.6502  166.5374 C.2     1  UNL1        0.3712
      8 N         141.3060  140.9292  165.0948 N.2     1  UNL1       -0.0428
      9 C         140.5754  139.9159  164.2643 C.3     1  UNL1        0.3825
     10 C         144.6031  142.4538  158.8828 C.3     1  UNL1        0.0897
     11 N         143.4490  142.0799  159.7649 N.3     1  UNL1       -0.2679
     12 C         142.3522  143.0979  159.8680 C.3     1  UNL1        0.0765
     13 C         141.0797  143.0250  160.6589 C.3     1  UNL1        0.0681
     14 C         140.5898  141.9158  161.5421 C.3     1  UNL1        0.2036
     15 N         141.2514  140.6059  161.8524 N.pl3   1  UNL1       -0.1887
     16 C         142.5662  140.0814  161.3563 C.3     1  UNL1        0.2195
     17 C         143.5442  140.7375  160.4272 C.3     1  UNL1        0.1236
     18 C         141.5282  141.4214  167.7127 C.ar    1  UNL1        0.0904
     19 C         142.8419  141.0456  168.3313 C.ar    1  UNL1        0.0101
     20 C         143.3654  141.8168  169.5066 C.ar    1  UNL1        0.0322
     21 C         142.5751  142.9638  170.0631 C.ar    1  UNL1        0.1674
     22 F         143.0986  143.7351  171.2384 F       1  UNL1       -0.2018
     23 C         141.2613  143.3396  169.4445 C.ar    1  UNL1        0.1676
     24 F         140.4710  144.4866  170.0011 F       1  UNL1       -0.2018
     25 C         140.7378  142.5684  168.2693 C.ar    1  UNL1        0.0396
@<TRIPOS>BOND
     1    10    11    1
     2    11    12    1
     3    12    13    1
     4    13    14    1
     5    14    15    1
     6    15     1    1
     7     1     2    2
     8     2     3    1
     9     3     4    2
    10     4     5    1
    11     5     6    2
    12     6     7    1
    13     7    18    1
    14    18    19   ar
    15    19    20   ar
    16    20    21   ar
    17    21    22    1
    18    21    23   ar
    19    23    24    1
    20    23    25   ar
    21     7     8    2
    22     8     9    1
    23    15    16    1
    24    16    17    1
    25    17    11    1
    26     9     1    1
    27     9     5    1
    28    25    18   ar
@<TRIPOS>MOLECULE
*****
 25 28 0 0 0
SMALL
GASTEIGER

@<TRIPOS>ATOM
      1 C         140.1382  142.7418  162.6421 C.2     1  UNL1        0.3579
      2 N         139.1430  143.6933  162.0472 N.2     1  UNL1       -0.0354
      3 C         138.3025  144.5557  162.9415 C.2     1  UNL1        0.2392
      4 C         138.4573  144.4664  164.4309 C.2     1  UNL1        0.0975
      5 C         139.4525  143.5149  165.0258 C.2     1  UNL1        0.2357
      6 N         139.8243  143.2098  166.4466 N.2     1  UNL1       -0.0340
      7 C         140.8945  142.1590  166.4304 C.2     1  UNL1        0.3712
      8 N         141.1842  141.8145  164.9995 N.2     1  UNL1       -0.0428
      9 C         140.2930  142.6525  164.1314 C.3     1  UNL1        0.3825
     10 C         142.4736  138.3840  158.7451 C.3     1  UNL1        0.0897
     11 N         142.2291  139.5463  159.6613 N.3     1  UNL1       -0.2679
     12 C         143.4109  140.4343  159.9157 C.3     1  UNL1        0.0765
     13 C         143.4906  141.6622  160.7736 C.3     1  UNL1        0.0681
     14 C         142.4082  142.3053  161.5889 C.3     1  UNL1        0.2036
     15 N         140.9787  141.8794  161.7477 N.pl3   1  UNL1       -0.1887
     16 C         140.2786  140.7052  161.1305 C.3     1  UNL1        0.2195
     17 C         140.8351  139.6668  160.2019 C.3     1  UNL1        0.1236
     18 C         141.5585  141.5580  167.6338 C.ar    1  UNL1        0.0904
     19 C         141.0491  140.2684  168.2057 C.ar    1  UNL1        0.0101
     20 C         141.7130  139.6675  169.4091 C.ar    1  UNL1        0.0322
     21 C         142.8864  140.3564  170.0405 C.ar    1  UNL1        0.1674
     22 F         143.5504  139.7554  171.2439 F       1  UNL1       -0.2018
     23 C         143.3959  141.6460  169.4685 C.ar    1  UNL1        0.1676
     24 F         144.5693  142.3348  170.0999 F       1  UNL1       -0.2018
     25 C         142.7319  142.2469  168.2651 C.ar    1  UNL1        0.0396
@<TRIPOS>BOND
     1    10    11    1
     2    11    12    1
     3    12    13    1
     4    13    14    1
     5    14    15    1
     6    15     1    1
     7     1     2    2
     8     2     3    1
     9     3     4    2
    10     4     5    1
    11     5     6    2
    12     6     7    1
    13     7    18    1
    14    18    19   ar
    15    19    20   ar
    16    20    21   ar
    17    21    22    1
    18    21    23   ar
    19    23    24    1
    20    23    25   ar
    21     7     8    2
    22     8     9    1
    23    15    16    1
    24    16    17    1
    25    17    11    1
    26     9     1    1
    27     9     5    1
    28    25    18   ar
@<TRIPOS>MOLECULE
*****
 25 28 0 0 0
SMALL
GASTEIGER

@<TRIPOS>ATOM
      1 C         139.3892  140.6012  162.0819 C.2     1  UNL1        0.3579
      2 N         139.0009  139.4940  161.1476 N.2     1  UNL1       -0.0354
      3 C         138.6600  138.1384  161.6918 C.2     1  UNL1        0.2392
      4 C         138.7075  137.8901  163.1703 C.2     1  UNL1        0.0975
      5 C         139.0959  138.9974  164.1047 C.2     1  UNL1        0.2357
      6 N         139.2299  139.0503  165.5977 N.2     1  UNL1       -0.0340
      7 C         139.6536  140.4385  165.9763 C.2     1  UNL1        0.3712
      8 N         139.7815  141.2437  164.7172 N.2     1  UNL1       -0.0428
      9 C         139.4367  140.3530  163.5605 C.3     1  UNL1        0.3825
     10 C         141.4372  145.5484  158.7709 C.3     1  UNL1        0.0897
     11 N         140.8266  144.6056  159.7650 N.3     1  UNL1       -0.2679
     12 C         140.1272  145.2476  160.9263 C.3     1  UNL1        0.0765
     13 C         139.4246  144.5881  162.0758 C.3     1  UNL1        0.0681
     14 C         139.2479  143.1235  162.3479 C.3     1  UNL1        0.2036
     15 N         139.7302  141.9569  161.5377 N.pl3   1  UNL1       -0.1887
     16 C         140.5082  141.9666  160.2554 C.3     1  UNL1        0.2195
     17 C         140.9962  143.1454  159.4664 C.3     1  UNL1        0.1236
     18 C         139.9053  140.9345  167.3694 C.ar    1  UNL1        0.0904
     19 C         140.3966  142.3344  167.5898 C.ar    1  UNL1        0.0101
     20 C         140.6483  142.8303  168.9829 C.ar    1  UNL1        0.0322
     21 C         140.4086  141.9262  170.1556 C.ar    1  UNL1        0.1674
     22 F         140.6602  142.4222  171.5487 F       1  UNL1       -0.2018
     23 C         139.9172  140.5263  169.9352 C.ar    1  UNL1        0.1676
     24 F         139.6775  139.6222  171.1079 F       1  UNL1       -0.2018
     25 C         139.6656  140.0304  168.5421 C.ar    1  UNL1        0.0396
@<TRIPOS>BOND
     1    10    11    1
     2    11    12    1
     3    12    13    1
     4    13    14    1
     5    14    15    1
     6    15     1    1
     7     1     2    2
     8     2     3    1
     9     3     4    2
    10     4     5    1
    11     5     6    2
    12     6     7    1
    13     7    18    1
    14    18    19   ar
    15    19    20   ar
    16    20    21   ar
    17    21    22    1
    18    21    23   ar
    19    23    24    1
    20    23    25   ar
    21     7     8    2
    22     8     9    1
    23    15    16    1
    24    16    17    1
    25    17    11    1
    26     9     1    1
    27     9     5    1
    28    25    18   ar
@<TRIPOS>MOLECULE
*****
 25 28 0 0 0
SMALL
GASTEIGER

@<TRIPOS>ATOM
      1 C         141.1306  140.3825  162.0380 C.2     1  UNL1        0.3579
      2 N         141.2081  139.4108  160.8980 N.2     1  UNL1       -0.0354
      3 C         141.3237  137.9406  161.1722 C.2     1  UNL1        0.2392
      4 C         141.3617  137.4422  162.5865 C.2     1  UNL1        0.0975
      5 C         141.2841  138.4139  163.7265 C.2     1  UNL1        0.2357
      6 N         141.2981  138.2196  165.2138 N.2     1  UNL1       -0.0340
      7 C         141.1912  139.5696  165.8588 C.2     1  UNL1        0.3712
      8 N         141.1112  140.5984  164.7701 N.2     1  UNL1       -0.0428
      9 C         141.1686  139.8841  163.4523 C.3     1  UNL1        0.3825
     10 C         139.4528  146.4363  161.6289 C.3     1  UNL1        0.0897
     11 N         140.1168  145.0939  161.5447 N.3     1  UNL1       -0.2679
     12 C         141.4073  145.0529  160.7813 C.3     1  UNL1        0.0765
     13 C         142.3023  143.8779  160.5197 C.3     1  UNL1        0.0681
     14 C         142.1277  142.4537  160.9570 C.3     1  UNL1        0.2036
     15 N         141.0151  141.8527  161.7638 N.pl3   1  UNL1       -0.1887
     16 C         139.8022  142.5275  162.3326 C.3     1  UNL1        0.2195
     17 C         139.4024  143.9700  162.2351 C.3     1  UNL1        0.1236
     18 C         141.1684  139.8429  167.3335 C.ar    1  UNL1        0.0904
     19 C         142.3784  139.5485  168.1697 C.ar    1  UNL1        0.0101
     20 C         142.3555  139.8218  169.6443 C.ar    1  UNL1        0.0322
     21 C         141.1227  140.3894  170.2829 C.ar    1  UNL1        0.1674
     22 F         141.0998  140.6627  171.7577 F       1  UNL1       -0.2018
     23 C         139.9126  140.6838  169.4468 C.ar    1  UNL1        0.1676
     24 F         138.6798  141.2515  170.0853 F       1  UNL1       -0.2018
     25 C         139.9355  140.4106  167.9721 C.ar    1  UNL1        0.0396
@<TRIPOS>BOND
     1    10    11    1
     2    11    12    1
     3    12    13    1
     4    13    14    1
     5    14    15    1
     6    15     1    1
     7     1     2    2
     8     2     3    1
     9     3     4    2
    10     4     5    1
    11     5     6    2
    12     6     7    1
    13     7    18    1
    14    18    19   ar
    15    19    20   ar
    16    20    21   ar
    17    21    22    1
    18    21    23   ar
    19    23    24    1
    20    23    25   ar
    21     7     8    2
    22     8     9    1
    23    15    16    1
    24    16    17    1
    25    17    11    1
    26     9     1    1
    27     9     5    1
    28    25    18   ar
@<TRIPOS>MOLECULE
*****
 25 28 0 0 0
SMALL
GASTEIGER

@<TRIPOS>ATOM
      1 C         142.4604  138.3619  157.7451 C.2     1  UNL1        0.3579
      2 N         142.6282  139.7202  157.1312 N.2     1  UNL1       -0.0354
      3 C         143.3430  139.8678  155.8208 C.2     1  UNL1        0.2392
      4 C         143.8900  138.6572  155.1243 C.2     1  UNL1        0.0975
      5 C         143.7223  137.2989  155.7382 C.2     1  UNL1        0.2357
      6 N         144.1514  135.9339  155.2879 N.2     1  UNL1       -0.0340
      7 C         143.7018  134.9427  156.3200 C.2     1  UNL1        0.3712
      8 N         142.9948  135.6950  157.4082 N.2     1  UNL1       -0.0428
      9 C         143.0074  137.1513  157.0486 C.3     1  UNL1        0.3825
     10 C         140.7416  137.4037  163.7249 C.3     1  UNL1        0.0897
     11 N         140.8253  137.7012  162.2571 N.3     1  UNL1       -0.2679
     12 C         139.5337  138.0802  161.5952 C.3     1  UNL1        0.0765
     13 C         139.2873  138.4320  160.1580 C.3     1  UNL1        0.0681
     14 C         140.2717  138.4916  159.0277 C.3     1  UNL1        0.2036
     15 N         141.7455  138.2142  159.0555 N.pl3   1  UNL1       -0.1887
     16 C         142.5991  137.8087  160.2204 C.3     1  UNL1        0.2195
     17 C         142.1895  137.5804  161.6452 C.3     1  UNL1        0.1236
     18 C         143.9207  133.4595  156.2723 C.ar    1  UNL1        0.0904
     19 C         143.5195  132.6809  155.0547 C.ar    1  UNL1        0.0101
     20 C         143.7385  131.1978  155.0070 C.ar    1  UNL1        0.0322
     21 C         144.3587  130.4932  156.1770 C.ar    1  UNL1        0.1674
     22 F         144.5777  129.0100  156.1293 F       1  UNL1       -0.2018
     23 C         144.7600  131.2718  157.3947 C.ar    1  UNL1        0.1676
     24 F         145.3802  130.5673  158.5647 F       1  UNL1       -0.2018
     25 C         144.5410  132.7549  157.4423 C.ar    1  UNL1        0.0396
@<TRIPOS>BOND
     1    10    11    1
     2    11    12    1
     3    12    13    1
     4    13    14    1
     5    14    15    1
     6    15     1    1
     7     1     2    2
     8     2     3    1
     9     3     4    2
    10     4     5    1
    11     5     6    2
    12     6     7    1
    13     7    18    1
    14    18    19   ar
    15    19    20   ar
    16    20    21   ar
    17    21    22    1
    18    21    23   ar
    19    23    24    1
    20    23    25   ar
    21     7     8    2
    22     8     9    1
    23    15    16    1
    24    16    17    1
    25    17    11    1
    26     9     1    1
    27     9     5    1
    28    25    18   ar
