@<TRIPOS>MOLECULE
*****
 26 29 0 0 0
SMALL
GASTEIGER

@<TRIPOS>ATOM
      1 C         137.3825  137.7873  166.9688 C.3     1  UNL1        0.1538
      2 N         138.2726  138.9946  166.9790 N.ar    1  UNL1       -0.2474
      3 C         138.4743  139.9509  165.8411 C.ar    1  UNL1        0.0966
      4 C         139.4436  141.0050  166.2878 C.ar    1  UNL1        0.0382
      5 C         139.8409  140.7002  167.7017 C.ar    1  UNL1        0.1023
      6 N         139.1171  139.4577  168.1289 N.ar    1  UNL1       -0.1692
      7 C         140.7944  141.4977  168.5411 C.ar    1  UNL1        0.0195
      8 C         140.3418  142.7776  169.1792 C.ar    1  UNL1        0.0039
      9 C         141.2954  143.5752  170.0186 C.ar    1  UNL1        0.0297
     10 C         142.7015  143.0930  170.2199 C.ar    1  UNL1        0.1401
     11 F         143.6550  143.8906  171.0593 F       1  UNL1       -0.2042
     12 C         143.1540  141.8131  169.5818 C.ar    1  UNL1        0.0297
     13 C         142.2004  141.0156  168.7424 C.ar    1  UNL1        0.0039
     14 C         139.9301  142.1610  165.4649 C.ar    1  UNL1        0.0058
     15 C         139.3119  143.5167  165.6368 C.ar    1  UNL1        0.0208
     16 C         139.7985  144.6726  164.8139 C.ar    1  UNL1        0.0985
     17 N         140.9033  144.4727  163.8191 N.ar    1  UNL1       -0.2467
     18 C         141.5215  143.1169  163.6473 C.ar    1  UNL1        0.0757
     19 C         141.0349  141.9610  164.4701 C.ar    1  UNL1        0.0163
     20 C         142.6262  142.9170  162.6525 C.3     1  UNL1        0.1248
     21 C         142.5979  143.6482  161.3432 C.3     1  UNL1        0.1639
     22 O         143.7027  143.4483  160.3484 O.3     1  UNL1       -0.3505
     23 C         144.8358  142.5172  160.6630 C.3     1  UNL1        0.1593
     24 C         144.8641  141.7860  161.9724 C.3     1  UNL1        0.1014
     25 N         143.7593  141.9859  162.9671 N.3     1  UNL1       -0.2897
     26 H         144.1932  142.3291  163.8240 H       1  UNL1        0.1237
@<TRIPOS>BOND
     1     1     2    1
     2     2     3   ar
     3     3     4   ar
     4     4    14    1
     5    14    15   ar
     6    15    16   ar
     7    16    17   ar
     8    17    18   ar
     9    18    20    1
    10    20    21    1
    11    21    22    1
    12    22    23    1
    13    23    24    1
    14    24    25    1
    15    18    19   ar
    16     4     5   ar
    17     5     7    1
    18     7     8   ar
    19     8     9   ar
    20     9    10   ar
    21    10    11    1
    22    10    12   ar
    23    12    13   ar
    24     5     6   ar
    25     6     2   ar
    26    19    14   ar
    27    13     7   ar
    28    25    20    1
    29    25    26    1
@<TRIPOS>MOLECULE
*****
 26 29 0 0 0
SMALL
GASTEIGER

@<TRIPOS>ATOM
      1 C         136.9782  137.8432  167.4689 C.3     1  UNL1        0.1538
      2 N         138.1379  138.7884  167.3620 N.ar    1  UNL1       -0.2474
      3 C         138.8434  139.1790  166.0972 C.ar    1  UNL1        0.0966
      4 C         139.9374  140.1410  166.4547 C.ar    1  UNL1        0.0382
      5 C         139.9080  140.3451  167.9404 C.ar    1  UNL1        0.1023
      6 N         138.7959  139.5092  168.5012 N.ar    1  UNL1       -0.1692
      7 C         140.8289  141.2297  168.7273 C.ar    1  UNL1        0.0195
      8 C         142.2094  140.7560  169.0738 C.ar    1  UNL1        0.0039
      9 C         143.1304  141.6407  169.8606 C.ar    1  UNL1        0.0297
     10 C         142.6710  142.9990  170.3011 C.ar    1  UNL1        0.1401
     11 F         143.5920  143.8837  171.0879 F       1  UNL1       -0.2042
     12 C         141.2906  143.4727  169.9546 C.ar    1  UNL1        0.0297
     13 C         140.3696  142.5880  169.1677 C.ar    1  UNL1        0.0039
     14 C         140.8930  140.7858  165.4949 C.ar    1  UNL1        0.0058
     15 C         142.3074  140.2953  165.4014 C.ar    1  UNL1        0.0208
     16 C         143.2629  140.9400  164.4416 C.ar    1  UNL1        0.0985
     17 N         142.8040  142.0753  163.5753 N.ar    1  UNL1       -0.2467
     18 C         141.3896  142.5659  163.6687 C.ar    1  UNL1        0.0757
     19 C         140.4341  141.9211  164.6285 C.ar    1  UNL1        0.0163
     20 C         140.9307  143.7012  162.8024 C.3     1  UNL1        0.1248
     21 C         139.8732  144.6426  163.2977 C.3     1  UNL1        0.1639
     22 O         139.4143  145.7779  162.4314 O.3     1  UNL1       -0.3505
     23 C         140.0128  145.9717  161.0698 C.3     1  UNL1        0.1593
     24 C         141.0703  145.0303  160.5745 C.3     1  UNL1        0.1014
     25 N         141.5292  143.8950  161.4408 N.3     1  UNL1       -0.2897
     26 H         142.5333  144.0141  161.5748 H       1  UNL1        0.1237
@<TRIPOS>BOND
     1     1     2    1
     2     2     3   ar
     3     3     4   ar
     4     4    14    1
     5    14    15   ar
     6    15    16   ar
     7    16    17   ar
     8    17    18   ar
     9    18    20    1
    10    20    21    1
    11    21    22    1
    12    22    23    1
    13    23    24    1
    14    24    25    1
    15    18    19   ar
    16     4     5   ar
    17     5     7    1
    18     7     8   ar
    19     8     9   ar
    20     9    10   ar
    21    10    11    1
    22    10    12   ar
    23    12    13   ar
    24     5     6   ar
    25     6     2   ar
    26    19    14   ar
    27    13     7   ar
    28    25    20    1
    29    25    26    1
@<TRIPOS>MOLECULE
*****
 26 29 0 0 0
SMALL
GASTEIGER

@<TRIPOS>ATOM
      1 C         140.3744  139.9313  170.7673 C.3     1  UNL1        0.1538
      2 N         140.6425  140.2193  169.3199 N.ar    1  UNL1       -0.2474
      3 C         139.6132  140.3012  168.2318 C.ar    1  UNL1        0.0966
      4 C         140.3216  140.6085  166.9458 C.ar    1  UNL1        0.0382
      5 C         141.7887  140.7165  167.2391 C.ar    1  UNL1        0.1023
      6 N         141.9870  140.4760  168.7063 N.ar    1  UNL1       -0.1692
      7 C         142.8679  141.0130  166.2405 C.ar    1  UNL1        0.0195
      8 C         143.3631  142.4183  166.0664 C.ar    1  UNL1        0.0039
      9 C         144.4423  142.7148  165.0677 C.ar    1  UNL1        0.0297
     10 C         145.0265  141.6062  164.2432 C.ar    1  UNL1        0.1401
     11 F         146.1058  141.9027  163.2446 F       1  UNL1       -0.2042
     12 C         144.5314  140.2010  164.4174 C.ar    1  UNL1        0.0297
     13 C         143.4521  139.9045  165.4160 C.ar    1  UNL1        0.0039
     14 C         139.6762  140.7780  165.6024 C.ar    1  UNL1        0.0058
     15 C         138.7768  139.7062  165.0618 C.ar    1  UNL1        0.0208
     16 C         138.1314  139.8757  163.7185 C.ar    1  UNL1        0.0985
     17 N         138.3854  141.1171  162.9157 N.ar    1  UNL1       -0.2467
     18 C         139.2848  142.1889  163.4562 C.ar    1  UNL1        0.0757
     19 C         139.9301  142.0194  164.7996 C.ar    1  UNL1        0.0163
     20 C         139.5387  143.4303  162.6534 C.3     1  UNL1        0.1248
     21 C         138.5917  144.5898  162.7454 C.3     1  UNL1        0.1639
     22 O         138.8457  145.8312  161.9426 O.3     1  UNL1       -0.3505
     23 C         140.0467  145.9130  161.0478 C.3     1  UNL1        0.1593
     24 C         140.9938  144.7534  160.9557 C.3     1  UNL1        0.1014
     25 N         140.7398  143.5121  161.7586 N.3     1  UNL1       -0.2897
     26 H         141.5583  143.3718  162.3508 H       1  UNL1        0.1237
@<TRIPOS>BOND
     1     1     2    1
     2     2     3   ar
     3     3     4   ar
     4     4    14    1
     5    14    15   ar
     6    15    16   ar
     7    16    17   ar
     8    17    18   ar
     9    18    20    1
    10    20    21    1
    11    21    22    1
    12    22    23    1
    13    23    24    1
    14    24    25    1
    15    18    19   ar
    16     4     5   ar
    17     5     7    1
    18     7     8   ar
    19     8     9   ar
    20     9    10   ar
    21    10    11    1
    22    10    12   ar
    23    12    13   ar
    24     5     6   ar
    25     6     2   ar
    26    19    14   ar
    27    13     7   ar
    28    25    20    1
    29    25    26    1
@<TRIPOS>MOLECULE
*****
 26 29 0 0 0
SMALL
GASTEIGER

@<TRIPOS>ATOM
      1 C         141.4823  142.0421  171.2268 C.3     1  UNL1        0.1538
      2 N         141.5303  142.1197  169.7296 N.ar    1  UNL1       -0.2474
      3 C         140.3651  142.3836  168.8226 C.ar    1  UNL1        0.0966
      4 C         140.8665  142.3740  167.4089 C.ar    1  UNL1        0.0382
      5 C         142.3417  142.1042  167.4422 C.ar    1  UNL1        0.1023
      6 N         142.7519  141.9470  168.8764 N.ar    1  UNL1       -0.1692
      7 C         143.2476  142.0084  166.2505 C.ar    1  UNL1        0.0195
      8 C         144.0143  143.2136  165.7924 C.ar    1  UNL1        0.0039
      9 C         144.9202  143.1177  164.6007 C.ar    1  UNL1        0.0297
     10 C         145.0594  141.8168  163.8670 C.ar    1  UNL1        0.1401
     11 F         145.9653  141.7209  162.6753 F       1  UNL1       -0.2042
     12 C         144.2927  140.6117  164.3251 C.ar    1  UNL1        0.0297
     13 C         143.3868  140.7075  165.5168 C.ar    1  UNL1        0.0039
     14 C         140.0382  142.5954  166.1780 C.ar    1  UNL1        0.0058
     15 C         139.5824  143.9787  165.8196 C.ar    1  UNL1        0.0208
     16 C         138.7541  144.2001  164.5888 C.ar    1  UNL1        0.0985
     17 N         138.3816  143.0380  163.7165 N.ar    1  UNL1       -0.2467
     18 C         138.8375  141.6547  164.0749 C.ar    1  UNL1        0.0757
     19 C         139.6657  141.4334  165.3057 C.ar    1  UNL1        0.0163
     20 C         138.4650  140.4927  163.2026 C.3     1  UNL1        0.1248
     21 C         138.7380  139.0914  163.6629 C.3     1  UNL1        0.1639
     22 O         138.3656  137.9294  162.7905 O.3     1  UNL1       -0.3505
     23 C         137.7201  138.1686  161.4579 C.3     1  UNL1        0.1593
     24 C         137.4471  139.5699  160.9975 C.3     1  UNL1        0.1014
     25 N         137.8195  140.7319  161.8699 N.3     1  UNL1       -0.2897
     26 H         136.9612  141.2535  162.0478 H       1  UNL1        0.1237
@<TRIPOS>BOND
     1     1     2    1
     2     2     3   ar
     3     3     4   ar
     4     4    14    1
     5    14    15   ar
     6    15    16   ar
     7    16    17   ar
     8    17    18   ar
     9    18    20    1
    10    20    21    1
    11    21    22    1
    12    22    23    1
    13    23    24    1
    14    24    25    1
    15    18    19   ar
    16     4     5   ar
    17     5     7    1
    18     7     8   ar
    19     8     9   ar
    20     9    10   ar
    21    10    11    1
    22    10    12   ar
    23    12    13   ar
    24     5     6   ar
    25     6     2   ar
    26    19    14   ar
    27    13     7   ar
    28    25    20    1
    29    25    26    1
@<TRIPOS>MOLECULE
*****
 26 29 0 0 0
SMALL
GASTEIGER

@<TRIPOS>ATOM
      1 C         141.9224  141.9617  171.0071 C.3     1  UNL1        0.1538
      2 N         141.8110  142.0941  169.5172 N.ar    1  UNL1       -0.2474
      3 C         142.9302  141.9338  168.5316 C.ar    1  UNL1        0.0966
      4 C         142.3717  142.1508  167.1564 C.ar    1  UNL1        0.0382
      5 C         140.9072  142.4453  167.2922 C.ar    1  UNL1        0.1023
      6 N         140.5606  142.4103  168.7512 N.ar    1  UNL1       -0.1692
      7 C         139.9561  142.7255  166.1666 C.ar    1  UNL1        0.0195
      8 C         139.2642  141.5918  165.4695 C.ar    1  UNL1        0.0039
      9 C         138.3132  141.8720  164.3439 C.ar    1  UNL1        0.0297
     10 C         138.0540  143.2860  163.9154 C.ar    1  UNL1        0.1401
     11 F         137.1030  143.5663  162.7898 F       1  UNL1       -0.2042
     12 C         138.7459  144.4197  164.6125 C.ar    1  UNL1        0.0297
     13 C         139.6969  144.1394  165.7381 C.ar    1  UNL1        0.0039
     14 C         143.1424  142.0848  165.8712 C.ar    1  UNL1        0.0058
     15 C         144.2095  143.0990  165.5837 C.ar    1  UNL1        0.0208
     16 C         144.9801  143.0330  164.2985 C.ar    1  UNL1        0.0985
     17 N         144.6836  141.9529  163.3008 N.ar    1  UNL1       -0.2467
     18 C         143.6165  140.9387  163.5883 C.ar    1  UNL1        0.0757
     19 C         142.8459  141.0047  164.8735 C.ar    1  UNL1        0.0163
     20 C         143.3200  139.8585  162.5906 C.3     1  UNL1        0.1248
     21 C         141.9764  139.7993  161.9265 C.3     1  UNL1        0.1639
     22 O         141.6800  138.7191  160.9288 O.3     1  UNL1       -0.3505
     23 C         142.7271  137.6982  160.5953 C.3     1  UNL1        0.1593
     24 C         144.0707  137.7575  161.2595 C.3     1  UNL1        0.1014
     25 N         144.3671  138.8377  162.2571 N.3     1  UNL1       -0.2897
     26 H         145.1760  139.3497  161.9051 H       1  UNL1        0.1237
@<TRIPOS>BOND
     1     1     2    1
     2     2     3   ar
     3     3     4   ar
     4     4    14    1
     5    14    15   ar
     6    15    16   ar
     7    16    17   ar
     8    17    18   ar
     9    18    20    1
    10    20    21    1
    11    21    22    1
    12    22    23    1
    13    23    24    1
    14    24    25    1
    15    18    19   ar
    16     4     5   ar
    17     5     7    1
    18     7     8   ar
    19     8     9   ar
    20     9    10   ar
    21    10    11    1
    22    10    12   ar
    23    12    13   ar
    24     5     6   ar
    25     6     2   ar
    26    19    14   ar
    27    13     7   ar
    28    25    20    1
    29    25    26    1
@<TRIPOS>MOLECULE
*****
 26 29 0 0 0
SMALL
GASTEIGER

@<TRIPOS>ATOM
      1 C         140.7637  141.9500  171.2361 C.3     1  UNL1        0.1538
      2 N         140.6057  141.8303  169.7493 N.ar    1  UNL1       -0.2474
      3 C         140.3517  140.5626  168.9888 C.ar    1  UNL1        0.0966
      4 C         140.2630  140.9061  167.5314 C.ar    1  UNL1        0.0382
      5 C         140.4622  142.3862  167.3910 C.ar    1  UNL1        0.1023
      6 N         140.6740  142.9574  168.7617 N.ar    1  UNL1       -0.1692
      7 C         140.4514  143.1593  166.1057 C.ar    1  UNL1        0.0195
      8 C         139.2222  143.9148  165.6952 C.ar    1  UNL1        0.0039
      9 C         139.2115  144.6879  164.4099 C.ar    1  UNL1        0.0297
     10 C         140.4299  144.7057  163.5350 C.ar    1  UNL1        0.1401
     11 F         140.4191  145.4789  162.2497 F       1  UNL1       -0.2042
     12 C         141.6590  143.9503  163.9456 C.ar    1  UNL1        0.0297
     13 C         141.6697  143.1771  165.2309 C.ar    1  UNL1        0.0039
     14 C         140.0180  139.9393  166.4109 C.ar    1  UNL1        0.0058
     15 C         138.7259  139.1803  166.3442 C.ar    1  UNL1        0.0208
     16 C         138.4811  138.2135  165.2238 C.ar    1  UNL1        0.0985
     17 N         139.5283  138.0057  164.1702 N.ar    1  UNL1       -0.2467
     18 C         140.8203  138.7646  164.2369 C.ar    1  UNL1        0.0757
     19 C         141.0652  139.7314  165.3573 C.ar    1  UNL1        0.0163
     20 C         141.8675  138.5568  163.1833 C.3     1  UNL1        0.1248
     21 C         143.2623  139.0634  163.4018 C.3     1  UNL1        0.1639
     22 O         144.3095  138.8555  162.3482 O.3     1  UNL1       -0.3505
     23 C         143.9619  138.1411  161.0759 C.3     1  UNL1        0.1593
     24 C         142.5671  137.6344  160.8574 C.3     1  UNL1        0.1014
     25 N         141.5199  137.8423  161.9110 N.3     1  UNL1       -0.2897
     26 H         141.1811  136.9174  162.1759 H       1  UNL1        0.1237
@<TRIPOS>BOND
     1     1     2    1
     2     2     3   ar
     3     3     4   ar
     4     4    14    1
     5    14    15   ar
     6    15    16   ar
     7    16    17   ar
     8    17    18   ar
     9    18    20    1
    10    20    21    1
    11    21    22    1
    12    22    23    1
    13    23    24    1
    14    24    25    1
    15    18    19   ar
    16     4     5   ar
    17     5     7    1
    18     7     8   ar
    19     8     9   ar
    20     9    10   ar
    21    10    11    1
    22    10    12   ar
    23    12    13   ar
    24     5     6   ar
    25     6     2   ar
    26    19    14   ar
    27    13     7   ar
    28    25    20    1
    29    25    26    1
@<TRIPOS>MOLECULE
*****
 26 29 0 0 0
SMALL
GASTEIGER

@<TRIPOS>ATOM
      1 C         138.8611  140.2573  170.3428 C.3     1  UNL1        0.1538
      2 N         139.3577  140.3408  168.9299 N.ar    1  UNL1       -0.2474
      3 C         140.4007  141.2887  168.4165 C.ar    1  UNL1        0.0966
      4 C         140.5861  141.0248  166.9516 C.ar    1  UNL1        0.0382
      5 C         139.6578  139.9137  166.5596 C.ar    1  UNL1        0.1023
      6 N         138.8986  139.4910  167.7822 N.ar    1  UNL1       -0.1692
      7 C         139.5139  139.3282  165.1861 C.ar    1  UNL1        0.0195
      8 C         140.4001  138.1967  164.7566 C.ar    1  UNL1        0.0039
      9 C         140.2562  137.6112  163.3831 C.ar    1  UNL1        0.0297
     10 C         139.2261  138.1570  162.4392 C.ar    1  UNL1        0.1401
     11 F         139.0822  137.5715  161.0657 F       1  UNL1       -0.2042
     12 C         138.3399  139.2884  162.8687 C.ar    1  UNL1        0.0297
     13 C         138.4838  139.8740  164.2422 C.ar    1  UNL1        0.0039
     14 C         141.5336  141.7455  166.0389 C.ar    1  UNL1        0.0058
     15 C         143.0135  141.6410  166.2601 C.ar    1  UNL1        0.0208
     16 C         143.9610  142.3616  165.3474 C.ar    1  UNL1        0.0985
     17 N         143.4285  143.1868  164.2135 N.ar    1  UNL1       -0.2467
     18 C         141.9486  143.2912  163.9923 C.ar    1  UNL1        0.0757
     19 C         141.0012  142.5706  164.9050 C.ar    1  UNL1        0.0163
     20 C         141.4162  144.1163  162.8584 C.3     1  UNL1        0.1248
     21 C         142.1336  144.1327  161.5413 C.3     1  UNL1        0.1639
     22 O         141.6011  144.9578  160.4074 O.3     1  UNL1       -0.3505
     23 C         140.3512  145.7666  160.5907 C.3     1  UNL1        0.1593
     24 C         139.6338  145.7502  161.9079 C.3     1  UNL1        0.1014
     25 N         140.1663  144.9251  163.0418 N.3     1  UNL1       -0.2897
     26 H         139.4280  144.2713  163.3022 H       1  UNL1        0.1237
@<TRIPOS>BOND
     1     1     2    1
     2     2     3   ar
     3     3     4   ar
     4     4    14    1
     5    14    15   ar
     6    15    16   ar
     7    16    17   ar
     8    17    18   ar
     9    18    20    1
    10    20    21    1
    11    21    22    1
    12    22    23    1
    13    23    24    1
    14    24    25    1
    15    18    19   ar
    16     4     5   ar
    17     5     7    1
    18     7     8   ar
    19     8     9   ar
    20     9    10   ar
    21    10    11    1
    22    10    12   ar
    23    12    13   ar
    24     5     6   ar
    25     6     2   ar
    26    19    14   ar
    27    13     7   ar
    28    25    20    1
    29    25    26    1
@<TRIPOS>MOLECULE
*****
 26 29 0 0 0
SMALL
GASTEIGER

@<TRIPOS>ATOM
      1 C         143.6512  137.8605  161.3724 C.3     1  UNL1        0.1538
      2 N         142.5891  138.5803  162.1495 N.ar    1  UNL1       -0.2474
      3 C         142.0188  138.1516  163.4690 C.ar    1  UNL1        0.0966
      4 C         140.9882  139.1616  163.8786 C.ar    1  UNL1        0.0382
      5 C         140.9215  140.2145  162.8124 C.ar    1  UNL1        0.1023
      6 N         141.9109  139.8553  161.7437 N.ar    1  UNL1       -0.1692
      7 C         140.0231  141.4157  162.8143 C.ar    1  UNL1        0.0195
      8 C         138.5432  141.2456  162.6379 C.ar    1  UNL1        0.0039
      9 C         137.6448  142.4468  162.6398 C.ar    1  UNL1        0.0297
     10 C         138.2262  143.8181  162.8183 C.ar    1  UNL1        0.1401
     11 F         137.3279  145.0193  162.8202 F       1  UNL1       -0.2042
     12 C         139.7061  143.9880  162.9947 C.ar    1  UNL1        0.0297
     13 C         140.6045  142.7868  162.9928 C.ar    1  UNL1        0.0039
     14 C         140.1682  139.1250  165.1342 C.ar    1  UNL1        0.0058
     15 C         138.8408  138.4265  165.1430 C.ar    1  UNL1        0.0208
     16 C         138.0209  138.3899  166.3985 C.ar    1  UNL1        0.0985
     17 N         138.5283  139.0519  167.6452 N.ar    1  UNL1       -0.2467
     18 C         139.8557  139.7504  167.6364 C.ar    1  UNL1        0.0757
     19 C         140.6756  139.7870  166.3809 C.ar    1  UNL1        0.0163
     20 C         140.3631  140.4124  168.8831 C.3     1  UNL1        0.1248
     21 C         139.3946  140.9668  169.8854 C.3     1  UNL1        0.1639
     22 O         139.9020  141.6288  171.1321 O.3     1  UNL1       -0.3505
     23 C         141.3780  141.7364  171.3765 C.3     1  UNL1        0.1593
     24 C         142.3465  141.1820  170.3743 C.3     1  UNL1        0.1014
     25 N         141.8391  140.5200  169.1276 N.3     1  UNL1       -0.2897
     26 H         142.2076  139.5689  169.1284 H       1  UNL1        0.1237
@<TRIPOS>BOND
     1     1     2    1
     2     2     3   ar
     3     3     4   ar
     4     4    14    1
     5    14    15   ar
     6    15    16   ar
     7    16    17   ar
     8    17    18   ar
     9    18    20    1
    10    20    21    1
    11    21    22    1
    12    22    23    1
    13    23    24    1
    14    24    25    1
    15    18    19   ar
    16     4     5   ar
    17     5     7    1
    18     7     8   ar
    19     8     9   ar
    20     9    10   ar
    21    10    11    1
    22    10    12   ar
    23    12    13   ar
    24     5     6   ar
    25     6     2   ar
    26    19    14   ar
    27    13     7   ar
    28    25    20    1
    29    25    26    1
@<TRIPOS>MOLECULE
*****
 26 29 0 0 0
SMALL
GASTEIGER

@<TRIPOS>ATOM
      1 C         141.0435  141.9474  171.0898 C.3     1  UNL1        0.1538
      2 N         141.1208  141.7091  169.6109 N.ar    1  UNL1       -0.2474
      3 C         141.9247  142.5096  168.6296 C.ar    1  UNL1        0.0966
      4 C         141.7084  141.9236  167.2658 C.ar    1  UNL1        0.0382
      5 C         140.7709  140.7609  167.4042 C.ar    1  UNL1        0.1023
      6 N         140.4076  140.6283  168.8535 N.ar    1  UNL1       -0.1692
      7 C         140.2823  139.8847  166.2891 C.ar    1  UNL1        0.0195
      8 C         141.1926  138.8523  165.6927 C.ar    1  UNL1        0.0039
      9 C         140.7040  137.9761  164.5776 C.ar    1  UNL1        0.0297
     10 C         139.3052  138.1321  164.0588 C.ar    1  UNL1        0.1401
     11 F         138.8166  137.2559  162.9438 F       1  UNL1       -0.2042
     12 C         138.3950  139.1645  164.6553 C.ar    1  UNL1        0.0297
     13 C         138.8836  140.0407  165.7704 C.ar    1  UNL1        0.0039
     14 C         142.3221  142.4142  165.9880 C.ar    1  UNL1        0.0058
     15 C         143.7692  142.1453  165.6992 C.ar    1  UNL1        0.0208
     16 C         144.3828  142.6359  164.4215 C.ar    1  UNL1        0.0985
     17 N         143.5492  143.3954  163.4324 N.ar    1  UNL1       -0.2467
     18 C         142.1021  143.6643  163.7211 C.ar    1  UNL1        0.0757
     19 C         141.4885  143.1737  164.9989 C.ar    1  UNL1        0.0163
     20 C         141.2685  144.4239  162.7320 C.3     1  UNL1        0.1248
     21 C         139.8812  144.8603  163.0990 C.3     1  UNL1        0.1639
     22 O         139.0476  145.6198  162.1099 O.3     1  UNL1       -0.3505
     23 C         139.6014  145.9429  160.7539 C.3     1  UNL1        0.1593
     24 C         140.9887  145.5065  160.3869 C.3     1  UNL1        0.1014
     25 N         141.8223  144.7469  161.3760 N.3     1  UNL1       -0.2897
     26 H         142.6706  145.2928  161.5268 H       1  UNL1        0.1237
@<TRIPOS>BOND
     1     1     2    1
     2     2     3   ar
     3     3     4   ar
     4     4    14    1
     5    14    15   ar
     6    15    16   ar
     7    16    17   ar
     8    17    18   ar
     9    18    20    1
    10    20    21    1
    11    21    22    1
    12    22    23    1
    13    23    24    1
    14    24    25    1
    15    18    19   ar
    16     4     5   ar
    17     5     7    1
    18     7     8   ar
    19     8     9   ar
    20     9    10   ar
    21    10    11    1
    22    10    12   ar
    23    12    13   ar
    24     5     6   ar
    25     6     2   ar
    26    19    14   ar
    27    13     7   ar
    28    25    20    1
    29    25    26    1
