@<TRIPOS>MOLECULE
*****
 23 25 0 0 0
SMALL
GASTEIGER

@<TRIPOS>ATOM
      1 C         140.7956  142.8399  165.8530 C.2     1  UNL1        0.2495
      2 O         139.8218  143.7118  165.1173 O.2     1  UNL1       -0.2699
      3 N         142.2006  142.6931  165.3485 N.am    1  UNL1       -0.2763
      4 C         139.6781  140.7853  166.9845 C.ar    1  UNL1        0.0296
      5 C         139.2471  140.0601  168.2247 C.ar    1  UNL1        0.0063
      6 C         139.5025  140.6642  169.5738 C.ar    1  UNL1        0.0005
      7 C         140.1889  141.9934  169.6826 C.ar    1  UNL1        0.0002
      8 C         140.6200  142.7186  168.4423 C.ar    1  UNL1        0.0050
      9 C         140.3646  142.1146  167.0933 C.ar    1  UNL1        0.0592
     10 S         139.4227  140.1813  165.6354 S.3     1  UNL1       -0.1135
     11 C         139.2700  137.6557  165.0455 C.3     1  UNL1        0.0129
     12 C         138.6177  138.9211  165.5182 C.3     1  UNL1        0.0622
     13 C         142.6317  143.4184  164.1083 C.3     1  UNL1        0.0927
     14 C         142.4404  142.9441  162.6981 C.3     1  UNL1        0.0383
     15 C         143.0202  143.9778  161.7788 C.3     1  UNL1        0.0704
     16 N         143.5700  145.0909  162.6207 N.3     1  UNL1       -0.2960
     17 C         143.3298  144.7452  164.0604 C.3     1  UNL1        0.0887
     18 H         143.0967  145.9648  162.3910 H       1  UNL1        0.1233
     19 C         143.1745  141.8211  166.0842 C.3     1  UNL1        0.0936
     20 C         143.1168  140.3309  165.9234 C.3     1  UNL1        0.0199
     21 C         143.1955  139.3856  164.7614 C.3     1  UNL1        0.0017
     22 C         143.0352  138.2234  165.6960 C.3     1  UNL1        0.0001
     23 C         142.9565  139.1686  166.8580 C.3     1  UNL1        0.0017
@<TRIPOS>BOND
     1    11    12    1
     2    12    10    1
     3    10     4    1
     4     4     5   ar
     5     5     6   ar
     6     6     7   ar
     7     7     8   ar
     8     8     9   ar
     9     9     1    1
    10     1     2    2
    11     1     3   am
    12     3    19    1
    13    19    20    1
    14    20    21    1
    15    21    22    1
    16    22    23    1
    17    13     3    1
    18    13    14    1
    19    14    15    1
    20    15    16    1
    21    16    17    1
    22     9     4   ar
    23    23    20    1
    24    17    13    1
    25    16    18    1
@<TRIPOS>MOLECULE
*****
 23 25 0 0 0
SMALL
GASTEIGER

@<TRIPOS>ATOM
      1 C         143.0984  142.1744  165.8751 C.2     1  UNL1        0.2495
      2 O         144.3679  142.0382  165.0878 O.2     1  UNL1       -0.2699
      3 N         141.9421  142.9424  165.3066 N.am    1  UNL1       -0.2763
      4 C         142.5288  140.1195  167.3594 C.ar    1  UNL1        0.0296
      5 C         142.4156  139.4878  168.7151 C.ar    1  UNL1        0.0063
      6 C         142.7588  140.2791  169.9423 C.ar    1  UNL1        0.0005
      7 C         143.2151  141.7022  169.8138 C.ar    1  UNL1        0.0002
      8 C         143.3283  142.3339  168.4581 C.ar    1  UNL1        0.0050
      9 C         142.9852  141.5426  167.2309 C.ar    1  UNL1        0.0592
     10 S         142.1856  139.3282  166.1322 S.3     1  UNL1       -0.1135
     11 C         139.6190  139.5630  166.4596 C.3     1  UNL1        0.0129
     12 C         140.8038  139.4029  165.5537 C.3     1  UNL1        0.0622
     13 C         142.0553  143.5742  163.9509 C.3     1  UNL1        0.0927
     14 C         141.8040  142.8944  162.6377 C.3     1  UNL1        0.0383
     15 C         142.0330  143.8967  161.5455 C.3     1  UNL1        0.0704
     16 N         142.4258  145.1961  162.1838 N.3     1  UNL1       -0.2960
     17 C         142.4396  144.9967  163.6704 C.3     1  UNL1        0.0887
     18 H         141.7511  145.9205  161.9379 H       1  UNL1        0.1233
     19 C         140.6726  143.0786  166.0940 C.3     1  UNL1        0.0936
     20 C         139.4095  143.5127  165.4112 C.3     1  UNL1        0.0199
     21 C         138.6876  144.8171  165.2458 C.3     1  UNL1        0.0017
     22 C         137.6233  144.1266  164.4455 C.3     1  UNL1        0.0001
     23 C         138.3451  142.8222  164.6109 C.3     1  UNL1        0.0017
@<TRIPOS>BOND
     1    11    12    1
     2    12    10    1
     3    10     4    1
     4     4     5   ar
     5     5     6   ar
     6     6     7   ar
     7     7     8   ar
     8     8     9   ar
     9     9     1    1
    10     1     2    2
    11     1     3   am
    12     3    19    1
    13    19    20    1
    14    20    21    1
    15    21    22    1
    16    22    23    1
    17    13     3    1
    18    13    14    1
    19    14    15    1
    20    15    16    1
    21    16    17    1
    22     9     4   ar
    23    23    20    1
    24    17    13    1
    25    16    18    1
@<TRIPOS>MOLECULE
*****
 23 25 0 0 0
SMALL
GASTEIGER

@<TRIPOS>ATOM
      1 C         142.9919  138.6626  166.3226 C.2     1  UNL1        0.2495
      2 O         144.1536  137.9521  166.9516 O.2     1  UNL1       -0.2699
      3 N         142.2272  139.6886  167.1052 N.am    1  UNL1       -0.2763
      4 C         143.3443  138.9612  163.7658 C.ar    1  UNL1        0.0296
      5 C         142.9472  138.6457  162.3542 C.ar    1  UNL1        0.0063
      6 C         141.8007  137.7160  162.0876 C.ar    1  UNL1        0.0005
      7 C         141.0513  137.1018  163.2326 C.ar    1  UNL1        0.0002
      8 C         141.4483  137.4173  164.6442 C.ar    1  UNL1        0.0050
      9 C         142.5948  138.3471  164.9108 C.ar    1  UNL1        0.0592
     10 S         144.4908  139.8910  164.0325 S.3     1  UNL1       -0.1135
     11 C         144.0068  142.1892  165.1433 C.3     1  UNL1        0.0129
     12 C         144.2962  141.3738  163.9180 C.3     1  UNL1        0.0622
     13 C         142.6241  140.0042  168.5168 C.3     1  UNL1        0.0927
     14 C         143.1056  141.3322  169.0214 C.3     1  UNL1        0.0383
     15 C         143.3884  141.1959  170.4882 C.3     1  UNL1        0.0704
     16 N         143.0817  139.7836  170.8902 N.3     1  UNL1       -0.2960
     17 C         142.6094  139.0471  169.6718 C.3     1  UNL1        0.0887
     18 H         142.3521  139.7773  171.6030 H       1  UNL1        0.1233
     19 C         141.0654  140.3991  166.4761 C.3     1  UNL1        0.0936
     20 C         139.6832  139.8291  166.5967 C.3     1  UNL1        0.0199
     21 C         138.8131  139.3888  167.7365 C.3     1  UNL1        0.0017
     22 C         137.7284  139.0230  166.7672 C.3     1  UNL1        0.0001
     23 C         138.5984  139.4633  165.6274 C.3     1  UNL1        0.0017
@<TRIPOS>BOND
     1    11    12    1
     2    12    10    1
     3    10     4    1
     4     4     5   ar
     5     5     6   ar
     6     6     7   ar
     7     7     8   ar
     8     8     9   ar
     9     9     1    1
    10     1     2    2
    11     1     3   am
    12     3    19    1
    13    19    20    1
    14    20    21    1
    15    21    22    1
    16    22    23    1
    17    13     3    1
    18    13    14    1
    19    14    15    1
    20    15    16    1
    21    16    17    1
    22     9     4   ar
    23    23    20    1
    24    17    13    1
    25    16    18    1
@<TRIPOS>MOLECULE
*****
 23 25 0 0 0
SMALL
GASTEIGER

@<TRIPOS>ATOM
      1 C         141.4642  141.6834  164.7685 C.2     1  UNL1        0.2495
      2 O         141.8994  143.1016  164.9904 O.2     1  UNL1       -0.2699
      3 N         140.2134  141.3955  163.9922 N.am    1  UNL1       -0.2763
      4 C         143.3303  139.8998  164.4747 C.ar    1  UNL1        0.0296
      5 C         144.1458  138.7695  165.0291 C.ar    1  UNL1        0.0063
      6 C         143.9107  138.2926  166.4316 C.ar    1  UNL1        0.0005
      7 C         142.8602  138.9459  167.2798 C.ar    1  UNL1        0.0002
      8 C         142.0447  140.0761  166.7254 C.ar    1  UNL1        0.0050
      9 C         142.2797  140.5531  165.3228 C.ar    1  UNL1        0.0592
     10 S         143.5654  140.3768  163.0721 S.3     1  UNL1       -0.1135
     11 C         145.6979  141.7329  163.6745 C.3     1  UNL1        0.0129
     12 C         144.9022  140.9355  162.6840 C.3     1  UNL1        0.0622
     13 C         139.3978  142.5257  163.4378 C.3     1  UNL1        0.0927
     14 C         138.1356  143.0766  164.0322 C.3     1  UNL1        0.0383
     15 C         137.6590  144.1949  163.1535 C.3     1  UNL1        0.0704
     16 N         138.6266  144.3352  162.0159 N.3     1  UNL1       -0.2960
     17 C         139.7012  143.3036  162.1916 C.3     1  UNL1        0.0887
     18 H         139.0380  145.2685  162.0245 H       1  UNL1        0.1233
     19 C         139.7782  139.9772  163.7703 C.3     1  UNL1        0.0936
     20 C         139.0433  139.2405  164.8507 C.3     1  UNL1        0.0199
     21 C         138.1595  139.6403  165.9948 C.3     1  UNL1        0.0017
     22 C         138.0040  138.1986  166.3785 C.3     1  UNL1        0.0001
     23 C         138.8878  137.7988  165.2344 C.3     1  UNL1        0.0017
@<TRIPOS>BOND
     1    11    12    1
     2    12    10    1
     3    10     4    1
     4     4     5   ar
     5     5     6   ar
     6     6     7   ar
     7     7     8   ar
     8     8     9   ar
     9     9     1    1
    10     1     2    2
    11     1     3   am
    12     3    19    1
    13    19    20    1
    14    20    21    1
    15    21    22    1
    16    22    23    1
    17    13     3    1
    18    13    14    1
    19    14    15    1
    20    15    16    1
    21    16    17    1
    22     9     4   ar
    23    23    20    1
    24    17    13    1
    25    16    18    1
@<TRIPOS>MOLECULE
*****
 23 25 0 0 0
SMALL
GASTEIGER

@<TRIPOS>ATOM
      1 C         141.3469  141.7131  164.8940 C.2     1  UNL1        0.2495
      2 O         141.7331  143.1366  165.1668 O.2     1  UNL1       -0.2699
      3 N         140.1123  141.4102  164.0978 N.am    1  UNL1       -0.2763
      4 C         142.0262  140.1206  166.8313 C.ar    1  UNL1        0.0296
      5 C         142.8747  138.9999  167.3547 C.ar    1  UNL1        0.0063
      6 C         143.8925  138.3509  166.4643 C.ar    1  UNL1        0.0005
      7 C         144.0618  138.8225  165.0505 C.ar    1  UNL1        0.0002
      8 C         143.2133  139.9432  164.5271 C.ar    1  UNL1        0.0050
      9 C         142.1955  140.5923  165.4175 C.ar    1  UNL1        0.0592
     10 S         141.0084  140.7697  167.7217 S.3     1  UNL1       -0.1135
     11 C         139.2494  140.5704  169.6233 C.3     1  UNL1        0.0129
     12 C         140.4073  139.9993  168.8597 C.3     1  UNL1        0.0622
     13 C         139.2638  142.5309  163.5743 C.3     1  UNL1        0.0927
     14 C         138.2174  143.2790  164.3459 C.3     1  UNL1        0.0383
     15 C         137.6196  144.3107  163.4358 C.3     1  UNL1        0.0704
     16 N         138.2965  144.2002  162.1018 N.3     1  UNL1       -0.2960
     17 C         139.3126  143.1002  162.1874 C.3     1  UNL1        0.0887
     18 H         138.7580  145.0808  161.8737 H       1  UNL1        0.1233
     19 C         139.7262  139.9866  163.8251 C.3     1  UNL1        0.0936
     20 C         139.0211  139.1856  164.8793 C.3     1  UNL1        0.0199
     21 C         139.0152  137.7423  165.2880 C.3     1  UNL1        0.0017
     22 C         138.0240  138.0529  166.3701 C.3     1  UNL1        0.0001
     23 C         138.0298  139.4960  165.9614 C.3     1  UNL1        0.0017
@<TRIPOS>BOND
     1    11    12    1
     2    12    10    1
     3    10     4    1
     4     4     5   ar
     5     5     6   ar
     6     6     7   ar
     7     7     8   ar
     8     8     9   ar
     9     9     1    1
    10     1     2    2
    11     1     3   am
    12     3    19    1
    13    19    20    1
    14    20    21    1
    15    21    22    1
    16    22    23    1
    17    13     3    1
    18    13    14    1
    19    14    15    1
    20    15    16    1
    21    16    17    1
    22     9     4   ar
    23    23    20    1
    24    17    13    1
    25    16    18    1
@<TRIPOS>MOLECULE
*****
 23 25 0 0 0
SMALL
GASTEIGER

@<TRIPOS>ATOM
      1 C         140.6398  140.1800  167.4508 C.2     1  UNL1        0.2495
      2 O         140.6180  139.5812  168.8258 O.2     1  UNL1       -0.2699
      3 N         140.9323  141.6405  167.2733 N.am    1  UNL1       -0.2763
      4 C         141.5043  138.6385  165.5464 C.ar    1  UNL1        0.0296
      5 C         141.2337  137.7769  164.3488 C.ar    1  UNL1        0.0063
      6 C         139.8280  137.5952  163.8578 C.ar    1  UNL1        0.0005
      7 C         138.6929  138.2751  164.5645 C.ar    1  UNL1        0.0002
      8 C         138.9636  139.1367  165.7621 C.ar    1  UNL1        0.0050
      9 C         140.3692  139.3184  166.2531 C.ar    1  UNL1        0.0592
     10 S         142.9100  138.8202  166.0374 S.3     1  UNL1       -0.1135
     11 C         144.1593  140.6003  164.6160 C.3     1  UNL1        0.0129
     12 C         144.0007  139.1804  165.0727 C.3     1  UNL1        0.0622
     13 C         141.2029  142.5022  168.4709 C.3     1  UNL1        0.0927
     14 C         140.2325  143.4483  169.1136 C.3     1  UNL1        0.0383
     15 C         140.9212  144.0999  170.2760 C.3     1  UNL1        0.0704
     16 N         142.3173  143.5564  170.3517 N.3     1  UNL1       -0.2960
     17 C         142.4913  142.5689  169.2360 C.3     1  UNL1        0.0887
     18 H         142.4603  143.0934  171.2492 H       1  UNL1        0.1233
     19 C         140.9541  142.2393  165.8981 C.3     1  UNL1        0.0936
     20 C         139.7427  142.9486  165.3696 C.3     1  UNL1        0.0199
     21 C         139.2164  144.3511  165.4478 C.3     1  UNL1        0.0017
     22 C         138.0294  143.9517  164.6223 C.3     1  UNL1        0.0001
     23 C         138.5557  142.5493  164.5441 C.3     1  UNL1        0.0017
@<TRIPOS>BOND
     1    11    12    1
     2    12    10    1
     3    10     4    1
     4     4     5   ar
     5     5     6   ar
     6     6     7   ar
     7     7     8   ar
     8     8     9   ar
     9     9     1    1
    10     1     2    2
    11     1     3   am
    12     3    19    1
    13    19    20    1
    14    20    21    1
    15    21    22    1
    16    22    23    1
    17    13     3    1
    18    13    14    1
    19    14    15    1
    20    15    16    1
    21    16    17    1
    22     9     4   ar
    23    23    20    1
    24    17    13    1
    25    16    18    1
@<TRIPOS>MOLECULE
*****
 23 25 0 0 0
SMALL
GASTEIGER

@<TRIPOS>ATOM
      1 C         142.7607  141.8498  165.5135 C.2     1  UNL1        0.2495
      2 O         143.3894  142.8780  164.6205 O.2     1  UNL1       -0.2699
      3 N         142.6356  140.4289  165.0493 N.am    1  UNL1       -0.2763
      4 C         140.8300  142.6701  167.0464 C.ar    1  UNL1        0.0296
      5 C         140.3264  143.0627  168.4037 C.ar    1  UNL1        0.0063
      6 C         141.2497  143.0276  169.5853 C.ar    1  UNL1        0.0005
      7 C         142.6767  142.5999  169.4097 C.ar    1  UNL1        0.0002
      8 C         143.1803  142.2073  168.0524 C.ar    1  UNL1        0.0050
      9 C         142.2570  142.2424  166.8708 C.ar    1  UNL1        0.0592
     10 S         139.9067  142.7052  165.8648 S.3     1  UNL1       -0.1135
     11 C         138.6023  144.9204  165.4893 C.3     1  UNL1        0.0129
     12 C         139.7089  143.9834  165.1053 C.3     1  UNL1        0.0622
     13 C         143.1393  140.0362  163.6920 C.3     1  UNL1        0.0927
     14 C         142.3985  140.1936  162.3973 C.3     1  UNL1        0.0383
     15 C         143.2735  139.6719  161.2963 C.3     1  UNL1        0.0704
     16 N         144.5551  139.1921  161.9106 N.3     1  UNL1       -0.2960
     17 C         144.4721  139.4173  163.3913 C.3     1  UNL1        0.0887
     18 H         145.3411  139.7151  161.5245 H       1  UNL1        0.1233
     19 C         142.0069  139.4007  165.9423 C.3     1  UNL1        0.0936
     20 C         140.7496  138.7035  165.5142 C.3     1  UNL1        0.0199
     21 C         139.2833  138.9296  165.7357 C.3     1  UNL1        0.0017
     22 C         138.9716  137.7176  164.9088 C.3     1  UNL1        0.0001
     23 C         140.4378  137.4915  164.6873 C.3     1  UNL1        0.0017
@<TRIPOS>BOND
     1    11    12    1
     2    12    10    1
     3    10     4    1
     4     4     5   ar
     5     5     6   ar
     6     6     7   ar
     7     7     8   ar
     8     8     9   ar
     9     9     1    1
    10     1     2    2
    11     1     3   am
    12     3    19    1
    13    19    20    1
    14    20    21    1
    15    21    22    1
    16    22    23    1
    17    13     3    1
    18    13    14    1
    19    14    15    1
    20    15    16    1
    21    16    17    1
    22     9     4   ar
    23    23    20    1
    24    17    13    1
    25    16    18    1
@<TRIPOS>MOLECULE
*****
 23 25 0 0 0
SMALL
GASTEIGER

@<TRIPOS>ATOM
      1 C         141.9147  139.6144  165.4569 C.2     1  UNL1        0.2495
      2 O         143.1277  138.9984  166.0886 O.2     1  UNL1       -0.2699
      3 N         142.0724  140.6650  164.3978 N.am    1  UNL1       -0.2763
      4 C         139.8844  139.8314  167.0634 C.ar    1  UNL1        0.0296
      5 C         138.5138  139.3969  167.4906 C.ar    1  UNL1        0.0063
      6 C         137.8027  138.3112  166.7386 C.ar    1  UNL1        0.0005
      7 C         138.4623  137.6599  165.5593 C.ar    1  UNL1        0.0002
      8 C         139.8330  138.0943  165.1321 C.ar    1  UNL1        0.0050
      9 C         140.5440  139.1800  165.8841 C.ar    1  UNL1        0.0592
     10 S         140.5955  140.9171  167.8154 S.3     1  UNL1       -0.1135
     11 C         142.0020  139.4502  169.4340 C.3     1  UNL1        0.0129
     12 C         141.1340  140.6489  169.1894 C.3     1  UNL1        0.0622
     13 C         143.4430  141.0994  163.9705 C.3     1  UNL1        0.0927
     14 C         144.2911  142.1345  164.6483 C.3     1  UNL1        0.0383
     15 C         145.5785  142.2498  163.8871 C.3     1  UNL1        0.0704
     16 N         145.5261  141.2860  162.7389 N.3     1  UNL1       -0.2960
     17 C         144.2063  140.5750  162.7905 C.3     1  UNL1        0.0887
     18 H         146.2864  140.6107  162.8188 H       1  UNL1        0.1233
     19 C         140.8594  141.2810  163.7660 C.3     1  UNL1        0.0936
     20 C         140.2019  142.4681  164.4053 C.3     1  UNL1        0.0199
     21 C         140.6647  143.8216  164.8568 C.3     1  UNL1        0.0017
     22 C         139.2721  144.1468  165.3094 C.3     1  UNL1        0.0001
     23 C         138.8093  142.7934  164.8579 C.3     1  UNL1        0.0017
@<TRIPOS>BOND
     1    11    12    1
     2    12    10    1
     3    10     4    1
     4     4     5   ar
     5     5     6   ar
     6     6     7   ar
     7     7     8   ar
     8     8     9   ar
     9     9     1    1
    10     1     2    2
    11     1     3   am
    12     3    19    1
    13    19    20    1
    14    20    21    1
    15    21    22    1
    16    22    23    1
    17    13     3    1
    18    13    14    1
    19    14    15    1
    20    15    16    1
    21    16    17    1
    22     9     4   ar
    23    23    20    1
    24    17    13    1
    25    16    18    1
@<TRIPOS>MOLECULE
*****
 23 25 0 0 0
SMALL
GASTEIGER

@<TRIPOS>ATOM
      1 C         142.7310  141.9523  166.9830 C.2     1  UNL1        0.2495
      2 O         143.5435  142.1360  168.2304 O.2     1  UNL1       -0.2699
      3 N         141.2351  141.8803  167.0660 N.am    1  UNL1       -0.2763
      4 C         143.7502  140.4901  165.0927 C.ar    1  UNL1        0.0296
      5 C         144.4337  140.3784  163.7621 C.ar    1  UNL1        0.0063
      6 C         144.7816  141.6173  162.9914 C.ar    1  UNL1        0.0005
      7 C         144.4460  142.9679  163.5511 C.ar    1  UNL1        0.0002
      8 C         143.7625  143.0795  164.8816 C.ar    1  UNL1        0.0050
      9 C         143.4146  141.8406  165.6524 C.ar    1  UNL1        0.0592
     10 S         143.4022  139.2512  165.8634 S.3     1  UNL1       -0.1135
     11 C         141.8366  137.8867  164.3024 C.3     1  UNL1        0.0129
     12 C         142.0947  138.5580  165.6187 C.3     1  UNL1        0.0622
     13 C         140.5515  141.9920  168.3965 C.3     1  UNL1        0.0927
     14 C         140.4839  143.2219  169.2525 C.3     1  UNL1        0.0383
     15 C         139.7062  142.8835  170.4896 C.3     1  UNL1        0.0704
     16 N         139.2931  141.4443  170.3983 N.3     1  UNL1       -0.2960
     17 C         139.8156  140.8934  169.1047 C.3     1  UNL1        0.0887
     18 H         138.2757  141.3742  170.4186 H       1  UNL1        0.1233
     19 C         140.4226  141.6966  165.8185 C.3     1  UNL1        0.0936
     20 C         139.4693  142.7684  165.3797 C.3     1  UNL1        0.0199
     21 C         139.4474  144.2662  165.4597 C.3     1  UNL1        0.0017
     22 C         138.1212  144.2841  164.7592 C.3     1  UNL1        0.0001
     23 C         138.1431  142.7865  164.6793 C.3     1  UNL1        0.0017
@<TRIPOS>BOND
     1    11    12    1
     2    12    10    1
     3    10     4    1
     4     4     5   ar
     5     5     6   ar
     6     6     7   ar
     7     7     8   ar
     8     8     9   ar
     9     9     1    1
    10     1     2    2
    11     1     3   am
    12     3    19    1
    13    19    20    1
    14    20    21    1
    15    21    22    1
    16    22    23    1
    17    13     3    1
    18    13    14    1
    19    14    15    1
    20    15    16    1
    21    16    17    1
    22     9     4   ar
    23    23    20    1
    24    17    13    1
    25    16    18    1
