@<TRIPOS>MOLECULE
*****
 35 39 0 0 0
SMALL
GASTEIGER

@<TRIPOS>ATOM
      1 C         139.2871  140.0123  168.9244 C.ar    1  UNL1        0.1285
      2 N         138.5478  139.2425  167.8703 N.ar    1  UNL1       -0.1992
      3 C         139.1077  139.1440  166.4823 C.ar    1  UNL1        0.2215
      4 N         140.4068  139.8153  166.1481 N.ar    1  UNL1       -0.2179
      5 C         141.1461  140.5850  167.2021 C.ar    1  UNL1        0.0642
      6 C         140.5862  140.6836  168.5902 C.ar    1  UNL1        0.0232
      7 C         141.5324  141.5053  169.4145 C.3     1  UNL1        0.0311
      8 C         142.6771  141.9146  168.5358 C.3     1  UNL1        0.0151
      9 C         142.4384  141.3459  167.1685 C.3     1  UNL1        0.0627
     10 C         143.3346  141.5093  165.9768 C.ar    1  UNL1       -0.0168
     11 C         143.7875  140.3035  165.2081 C.ar    1  UNL1       -0.0016
     12 C         144.6837  140.4669  164.0163 C.ar    1  UNL1        0.0293
     13 C         145.1269  141.8360  163.5934 C.ar    1  UNL1        0.1401
     14 F         146.0231  141.9994  162.4017 F       1  UNL1       -0.2042
     15 C         144.6740  143.0418  164.3622 C.ar    1  UNL1        0.0293
     16 C         143.7778  142.8785  165.5538 C.ar    1  UNL1       -0.0016
     17 C         137.3458  139.6026  170.6018 C.3     1  UNL1        0.1096
     18 N         138.7271  140.1108  170.3125 N.pl3   1  UNL1       -0.3168
     19 H         139.2662  140.5090  171.0336 H       1  UNL1        0.1482
     20 N         138.3684  138.3742  165.4282 N.pl3   1  UNL1       -0.2824
     21 H         137.8213  137.5955  165.6801 H       1  UNL1        0.1551
     22 C         138.4630  138.7909  163.9903 C.ar    1  UNL1        0.0536
     23 C         139.0174  137.8422  162.9693 C.ar    1  UNL1        0.0164
     24 C         139.1119  138.2589  161.5314 C.ar    1  UNL1        0.0236
     25 C         138.6520  139.6245  161.1146 C.ar    1  UNL1        0.1185
     26 C         138.0976  140.5733  162.1356 C.ar    1  UNL1        0.1575
     27 C         138.0031  140.1565  163.5735 C.ar    1  UNL1        0.0531
     28 N         138.7465  140.0412  159.6768 N.ar    1  UNL1       -0.2053
     29 C         140.0015  140.4267  158.9513 C.ar    1  UNL1        0.2014
     30 N         139.6333  140.7694  157.5381 N.ar    1  UNL1       -0.2073
     31 C         138.1508  140.5957  157.3903 C.ar    1  UNL1        0.1613
     32 C         137.3558  140.8308  156.1401 C.3     1  UNL1        0.0756
     33 N         137.6027  140.1457  158.7121 N.ar    1  UNL1       -0.1487
     34 O         137.6377  141.9388  161.7189 O.3     1  UNL1       -0.4699
     35 C         137.6339  143.0641  162.7106 C.3     1  UNL1        0.2525
@<TRIPOS>BOND
     1    17    18    1
     2    18     1    1
     3     1     2   ar
     4     2     3   ar
     5     3    20    1
     6    20    22    1
     7    22    23   ar
     8    23    24   ar
     9    24    25   ar
    10    25    28    1
    11    28    29   ar
    12    29    30   ar
    13    30    31   ar
    14    31    32    1
    15    31    33   ar
    16    25    26   ar
    17    26    34    1
    18    34    35    1
    19    26    27   ar
    20     3     4   ar
    21     4     5   ar
    22     5     6   ar
    23     6     7    1
    24     7     8    1
    25     8     9    1
    26     9    10    1
    27    10    11   ar
    28    11    12   ar
    29    12    13   ar
    30    13    14    1
    31    13    15   ar
    32    15    16   ar
    33     6     1   ar
    34    16    10   ar
    35    27    22   ar
    36     9     5    1
    37    33    28   ar
    38    18    19    1
    39    20    21    1
@<TRIPOS>MOLECULE
*****
 35 39 0 0 0
SMALL
GASTEIGER

@<TRIPOS>ATOM
      1 C         142.5616  139.6258  168.7421 C.ar    1  UNL1        0.1285
      2 N         143.1902  138.8311  167.6360 N.ar    1  UNL1       -0.1992
      3 C         143.0430  139.2802  166.2125 C.ar    1  UNL1        0.2215
      4 N         142.2671  140.5241  165.8948 N.ar    1  UNL1       -0.2179
      5 C         141.6384  141.3188  167.0008 C.ar    1  UNL1        0.0642
      6 C         141.7857  140.8697  168.4244 C.ar    1  UNL1        0.0232
      7 C         141.0600  141.8502  169.2973 C.3     1  UNL1        0.0311
      8 C         140.4642  142.9053  168.4131 C.3     1  UNL1        0.0151
      9 C         140.8217  142.5769  166.9939 C.3     1  UNL1        0.0627
     10 C         140.4311  143.3678  165.7806 C.ar    1  UNL1       -0.0168
     11 C         139.0149  143.8327  165.6125 C.ar    1  UNL1       -0.0016
     12 C         138.6242  144.6236  164.3992 C.ar    1  UNL1        0.0293
     13 C         139.6496  144.9495  163.3542 C.ar    1  UNL1        0.1401
     14 F         139.2590  145.7404  162.1410 F       1  UNL1       -0.2042
     15 C         141.0659  144.4846  163.5224 C.ar    1  UNL1        0.0293
     16 C         141.4566  143.6937  164.7356 C.ar    1  UNL1       -0.0016
     17 C         143.1194  137.7661  170.4683 C.3     1  UNL1        0.1096
     18 N         142.7089  139.1766  170.1657 N.pl3   1  UNL1       -0.3168
     19 H         142.5361  139.8077  170.9013 H       1  UNL1        0.1482
     20 N         143.6716  138.4855  165.1064 N.pl3   1  UNL1       -0.2824
     21 H         144.0801  137.6108  165.2994 H       1  UNL1        0.1551
     22 C         143.6778  139.0236  163.7062 C.ar    1  UNL1        0.0536
     23 C         142.9595  138.2854  162.6157 C.ar    1  UNL1        0.0164
     24 C         142.9657  138.8235  161.2156 C.ar    1  UNL1        0.0236
     25 C         143.6902  140.1000  160.9059 C.ar    1  UNL1        0.1185
     26 C         144.4085  140.8382  161.9963 C.ar    1  UNL1        0.1575
     27 C         144.4023  140.3000  163.3965 C.ar    1  UNL1        0.0531
     28 N         143.6964  140.6381  159.5058 N.ar    1  UNL1       -0.2053
     29 C         143.0145  141.8901  159.0395 C.ar    1  UNL1        0.2014
     30 N         143.2822  142.0445  157.5716 N.ar    1  UNL1       -0.2073
     31 C         144.1296  140.8879  157.1308 C.ar    1  UNL1        0.1613
     32 C         144.6327  140.6434  155.7390 C.3     1  UNL1        0.0756
     33 N         144.3856  140.0187  158.3262 N.ar    1  UNL1       -0.1487
     34 O         145.1330  142.1146  161.6867 O.3     1  UNL1       -0.4699
     35 C         144.5882  143.4238  162.1753 C.3     1  UNL1        0.2525
@<TRIPOS>BOND
     1    17    18    1
     2    18     1    1
     3     1     2   ar
     4     2     3   ar
     5     3    20    1
     6    20    22    1
     7    22    23   ar
     8    23    24   ar
     9    24    25   ar
    10    25    28    1
    11    28    29   ar
    12    29    30   ar
    13    30    31   ar
    14    31    32    1
    15    31    33   ar
    16    25    26   ar
    17    26    34    1
    18    34    35    1
    19    26    27   ar
    20     3     4   ar
    21     4     5   ar
    22     5     6   ar
    23     6     7    1
    24     7     8    1
    25     8     9    1
    26     9    10    1
    27    10    11   ar
    28    11    12   ar
    29    12    13   ar
    30    13    14    1
    31    13    15   ar
    32    15    16   ar
    33     6     1   ar
    34    16    10   ar
    35    27    22   ar
    36     9     5    1
    37    33    28   ar
    38    18    19    1
    39    20    21    1
@<TRIPOS>MOLECULE
*****
 35 39 0 0 0
SMALL
GASTEIGER

@<TRIPOS>ATOM
      1 C         139.7129  140.2908  168.8140 C.ar    1  UNL1        0.1285
      2 N         138.8694  139.5173  167.8442 N.ar    1  UNL1       -0.1992
      3 C         139.2785  139.4220  166.4043 C.ar    1  UNL1        0.2215
      4 N         140.5310  140.1002  165.9340 N.ar    1  UNL1       -0.2179
      5 C         141.3745  140.8737  166.9036 C.ar    1  UNL1        0.0642
      6 C         140.9654  140.9690  168.3436 C.ar    1  UNL1        0.0232
      7 C         141.9898  141.7956  169.0628 C.3     1  UNL1        0.0311
      8 C         143.0320  142.2112  168.0673 C.3     1  UNL1        0.0151
      9 C         142.6518  141.6414  166.7329 C.3     1  UNL1        0.0627
     10 C         143.4148  141.8098  165.4525 C.ar    1  UNL1       -0.0168
     11 C         143.4718  143.1515  164.7843 C.ar    1  UNL1       -0.0016
     12 C         144.2349  143.3200  163.5039 C.ar    1  UNL1        0.0293
     13 C         144.9409  142.1467  162.8917 C.ar    1  UNL1        0.1401
     14 F         145.7039  142.3151  161.6113 F       1  UNL1       -0.2042
     15 C         144.8838  140.8049  163.5599 C.ar    1  UNL1        0.0293
     16 C         144.1208  140.6364  164.8402 C.ar    1  UNL1       -0.0016
     17 C         140.2174  139.8760  171.3286 C.3     1  UNL1        0.1096
     18 N         139.3037  140.3861  170.2540 N.pl3   1  UNL1       -0.3168
     19 H         138.4354  140.7834  170.4937 H       1  UNL1        0.1482
     20 N         138.4351  138.6484  165.4345 N.pl3   1  UNL1       -0.2824
     21 H         137.8592  137.9178  165.7567 H       1  UNL1        0.1551
     22 C         138.4692  138.9881  163.9739 C.ar    1  UNL1        0.0536
     23 C         138.9019  137.9571  162.9739 C.ar    1  UNL1        0.0164
     24 C         138.9360  138.2968  161.5133 C.ar    1  UNL1        0.0236
     25 C         138.5374  139.6676  161.0526 C.ar    1  UNL1        0.1185
     26 C         138.1047  140.6985  162.0525 C.ar    1  UNL1        0.1575
     27 C         138.0706  140.3588  163.5132 C.ar    1  UNL1        0.0531
     28 N         138.5715  140.0073  159.5920 N.ar    1  UNL1       -0.2053
     29 C         139.8047  140.1983  158.7598 C.ar    1  UNL1        0.2014
     30 N         139.3738  140.5247  157.3606 N.ar    1  UNL1       -0.2073
     31 C         137.8742  140.5354  157.3281 C.ar    1  UNL1        0.1613
     32 C         137.0203  140.8165  156.1272 C.3     1  UNL1        0.0756
     33 N         137.3783  140.2156  158.7072 N.ar    1  UNL1       -0.1487
     34 O         137.7060  142.0693  161.5919 O.3     1  UNL1       -0.4699
     35 C         137.7417  143.2225  162.5503 C.3     1  UNL1        0.2525
@<TRIPOS>BOND
     1    17    18    1
     2    18     1    1
     3     1     2   ar
     4     2     3   ar
     5     3    20    1
     6    20    22    1
     7    22    23   ar
     8    23    24   ar
     9    24    25   ar
    10    25    28    1
    11    28    29   ar
    12    29    30   ar
    13    30    31   ar
    14    31    32    1
    15    31    33   ar
    16    25    26   ar
    17    26    34    1
    18    34    35    1
    19    26    27   ar
    20     3     4   ar
    21     4     5   ar
    22     5     6   ar
    23     6     7    1
    24     7     8    1
    25     8     9    1
    26     9    10    1
    27    10    11   ar
    28    11    12   ar
    29    12    13   ar
    30    13    14    1
    31    13    15   ar
    32    15    16   ar
    33     6     1   ar
    34    16    10   ar
    35    27    22   ar
    36     9     5    1
    37    33    28   ar
    38    18    19    1
    39    20    21    1
@<TRIPOS>MOLECULE
*****
 35 39 0 0 0
SMALL
GASTEIGER

@<TRIPOS>ATOM
      1 C         141.2615  141.8964  168.8342 C.ar    1  UNL1        0.1285
      2 N         140.4789  142.9343  168.0856 N.ar    1  UNL1       -0.1992
      3 C         140.3331  142.8339  166.5961 C.ar    1  UNL1        0.2215
      4 N         140.9699  141.6957  165.8552 N.ar    1  UNL1       -0.2179
      5 C         141.7524  140.6579  166.6038 C.ar    1  UNL1        0.0642
      6 C         141.8982  140.7582  168.0933 C.ar    1  UNL1        0.0232
      7 C         142.7226  139.5943  168.5578 C.3     1  UNL1        0.0311
      8 C         143.0863  138.7747  167.3553 C.3     1  UNL1        0.0151
      9 C         142.4867  139.4320  166.1477 C.3     1  UNL1        0.0627
     10 C         142.6013  138.9483  164.7324 C.ar    1  UNL1       -0.0168
     11 C         141.5177  138.0963  164.1410 C.ar    1  UNL1       -0.0016
     12 C         141.6322  137.6126  162.7257 C.ar    1  UNL1        0.0293
     13 C         142.8304  137.9809  161.9020 C.ar    1  UNL1        0.1401
     14 F         142.9450  137.4972  160.4867 F       1  UNL1       -0.2042
     15 C         143.9140  138.8329  162.4934 C.ar    1  UNL1        0.0293
     16 C         143.7995  139.3166  163.9086 C.ar    1  UNL1       -0.0016
     17 C         140.7836  140.9596  171.2100 C.3     1  UNL1        0.1096
     18 N         141.4072  141.9967  170.3238 N.pl3   1  UNL1       -0.3168
     19 H         141.9122  142.7433  170.7198 H       1  UNL1        0.1482
     20 N         139.5505  143.8718  165.8475 N.pl3   1  UNL1       -0.2824
     21 H         138.8972  144.4340  166.3234 H       1  UNL1        0.1551
     22 C         139.7633  144.0531  164.3738 C.ar    1  UNL1        0.0536
     23 C         140.9108  144.8823  163.8780 C.ar    1  UNL1        0.0164
     24 C         141.1237  145.0636  162.4043 C.ar    1  UNL1        0.0236
     25 C         140.1889  144.4157  161.4263 C.ar    1  UNL1        0.1185
     26 C         139.0415  143.5865  161.9219 C.ar    1  UNL1        0.1575
     27 C         138.8287  143.4052  163.3957 C.ar    1  UNL1        0.0531
     28 N         140.4017  144.5970  159.9526 N.ar    1  UNL1       -0.2053
     29 C         141.1311  143.6520  159.0443 C.ar    1  UNL1        0.2014
     30 N         141.1027  144.2260  157.6587 N.ar    1  UNL1       -0.2073
     31 C         140.3558  145.5258  157.7107 C.ar    1  UNL1        0.1613
     32 C         140.0889  146.4365  156.5490 C.3     1  UNL1        0.0756
     33 N         139.9226  145.7550  159.1284 N.ar    1  UNL1       -0.1487
     34 O         138.1067  142.9385  160.9440 O.3     1  UNL1       -0.4699
     35 C         138.0395  141.4432  160.8486 C.3     1  UNL1        0.2525
@<TRIPOS>BOND
     1    17    18    1
     2    18     1    1
     3     1     2   ar
     4     2     3   ar
     5     3    20    1
     6    20    22    1
     7    22    23   ar
     8    23    24   ar
     9    24    25   ar
    10    25    28    1
    11    28    29   ar
    12    29    30   ar
    13    30    31   ar
    14    31    32    1
    15    31    33   ar
    16    25    26   ar
    17    26    34    1
    18    34    35    1
    19    26    27   ar
    20     3     4   ar
    21     4     5   ar
    22     5     6   ar
    23     6     7    1
    24     7     8    1
    25     8     9    1
    26     9    10    1
    27    10    11   ar
    28    11    12   ar
    29    12    13   ar
    30    13    14    1
    31    13    15   ar
    32    15    16   ar
    33     6     1   ar
    34    16    10   ar
    35    27    22   ar
    36     9     5    1
    37    33    28   ar
    38    18    19    1
    39    20    21    1
@<TRIPOS>MOLECULE
*****
 35 39 0 0 0
SMALL
GASTEIGER

@<TRIPOS>ATOM
      1 C         144.1643  139.5249  163.1221 C.ar    1  UNL1        0.1285
      2 N         144.3092  140.8180  162.3758 N.ar    1  UNL1       -0.1992
      3 C         143.8850  142.1058  163.0173 C.ar    1  UNL1        0.2215
      4 N         143.3159  142.1005  164.4052 N.ar    1  UNL1       -0.2179
      5 C         143.1710  140.8075  165.1514 C.ar    1  UNL1        0.0642
      6 C         143.5952  139.5196  164.5099 C.ar    1  UNL1        0.0232
      7 C         143.3343  138.4087  165.4835 C.3     1  UNL1        0.0311
      8 C         142.7488  139.0100  166.7267 C.3     1  UNL1        0.0151
      9 C         142.6479  140.4925  166.5215 C.3     1  UNL1        0.0627
     10 C         142.1171  141.4856  167.5125 C.ar    1  UNL1       -0.0168
     11 C         140.7702  142.1106  167.2998 C.ar    1  UNL1       -0.0016
     12 C         140.2393  143.1038  168.2907 C.ar    1  UNL1        0.0293
     13 C         141.0553  143.4718  169.4943 C.ar    1  UNL1        0.1401
     14 F         140.5244  144.4649  170.4852 F       1  UNL1       -0.2042
     15 C         142.4022  142.8467  169.7069 C.ar    1  UNL1        0.0293
     16 C         142.9331  141.8537  168.7161 C.ar    1  UNL1       -0.0016
     17 C         143.8939  137.7512  161.2430 C.3     1  UNL1        0.1096
     18 N         144.5886  138.2371  162.4804 N.pl3   1  UNL1       -0.3168
     19 H         145.3229  137.7108  162.8715 H       1  UNL1        0.1482
     20 N         144.0299  143.3989  162.2711 N.pl3   1  UNL1       -0.2824
     21 H         144.7290  144.0416  162.5308 H       1  UNL1        0.1551
     22 C         143.1094  143.7129  161.1291 C.ar    1  UNL1        0.0536
     23 C         143.4065  143.1813  159.7582 C.ar    1  UNL1        0.0164
     24 C         142.4861  143.4953  158.6162 C.ar    1  UNL1        0.0236
     25 C         141.2684  144.3409  158.8451 C.ar    1  UNL1        0.1185
     26 C         140.9713  144.8725  160.2158 C.ar    1  UNL1        0.1575
     27 C         141.8918  144.5585  161.3579 C.ar    1  UNL1        0.0531
     28 N         140.3480  144.6549  157.7031 N.ar    1  UNL1       -0.2053
     29 C         139.4410  143.6826  157.0088 C.ar    1  UNL1        0.2014
     30 N         138.7053  144.4231  155.9314 N.ar    1  UNL1       -0.2073
     31 C         139.1577  145.8529  155.9600 C.ar    1  UNL1        0.1613
     32 C         138.6788  146.9475  155.0528 C.3     1  UNL1        0.0756
     33 N         140.1728  145.9962  157.0549 N.ar    1  UNL1       -0.1487
     34 O         139.7537  145.7182  160.4447 O.3     1  UNL1       -0.4699
     35 C         139.5479  146.3941  161.7678 C.3     1  UNL1        0.2525
@<TRIPOS>BOND
     1    17    18    1
     2    18     1    1
     3     1     2   ar
     4     2     3   ar
     5     3    20    1
     6    20    22    1
     7    22    23   ar
     8    23    24   ar
     9    24    25   ar
    10    25    28    1
    11    28    29   ar
    12    29    30   ar
    13    30    31   ar
    14    31    32    1
    15    31    33   ar
    16    25    26   ar
    17    26    34    1
    18    34    35    1
    19    26    27   ar
    20     3     4   ar
    21     4     5   ar
    22     5     6   ar
    23     6     7    1
    24     7     8    1
    25     8     9    1
    26     9    10    1
    27    10    11   ar
    28    11    12   ar
    29    12    13   ar
    30    13    14    1
    31    13    15   ar
    32    15    16   ar
    33     6     1   ar
    34    16    10   ar
    35    27    22   ar
    36     9     5    1
    37    33    28   ar
    38    18    19    1
    39    20    21    1
@<TRIPOS>MOLECULE
*****
 35 39 0 0 0
SMALL
GASTEIGER

@<TRIPOS>ATOM
      1 C         141.8081  141.8302  169.0320 C.ar    1  UNL1        0.1285
      2 N         142.8822  142.4368  168.1783 N.ar    1  UNL1       -0.1992
      3 C         142.8580  142.2418  166.6914 C.ar    1  UNL1        0.2215
      4 N         141.7598  141.4402  166.0578 N.ar    1  UNL1       -0.2179
      5 C         140.6858  140.8336  166.9113 C.ar    1  UNL1        0.0642
      6 C         140.7099  141.0285  168.3984 C.ar    1  UNL1        0.0232
      7 C         139.5247  140.3156  168.9788 C.3     1  UNL1        0.0311
      8 C         138.7680  139.6799  167.8504 C.3     1  UNL1        0.0151
      9 C         139.4855  140.0000  166.5726 C.3     1  UNL1        0.0627
     10 C         139.0750  139.5633  165.1976 C.ar    1  UNL1       -0.0168
     11 C         139.3844  138.1725  164.7288 C.ar    1  UNL1       -0.0016
     12 C         138.9739  137.7357  163.3537 C.ar    1  UNL1        0.0293
     13 C         138.2538  138.6897  162.4476 C.ar    1  UNL1        0.1401
     14 F         137.8432  138.2530  161.0726 F       1  UNL1       -0.2042
     15 C         137.9443  140.0806  162.9164 C.ar    1  UNL1        0.0293
     16 C         138.3549  140.5174  164.2914 C.ar    1  UNL1       -0.0016
     17 C         142.1164  140.8627  171.4234 C.3     1  UNL1        0.1096
     18 N         141.8324  142.0252  170.5191 N.pl3   1  UNL1       -0.3168
     19 H         141.6619  142.9162  170.9015 H       1  UNL1        0.1482
     20 N         143.9320  142.8484  165.8377 N.pl3   1  UNL1       -0.2824
     21 H         144.5798  143.4753  166.2333 H       1  UNL1        0.1551
     22 C         144.0189  142.4997  164.3814 C.ar    1  UNL1        0.0536
     23 C         144.7223  141.2468  163.9508 C.ar    1  UNL1        0.0164
     24 C         144.8092  140.8981  162.4945 C.ar    1  UNL1        0.0236
     25 C         144.1926  141.8024  161.4687 C.ar    1  UNL1        0.1185
     26 C         143.4891  143.0552  161.8993 C.ar    1  UNL1        0.1575
     27 C         143.4022  143.4039  163.3557 C.ar    1  UNL1        0.0531
     28 N         144.2794  141.4537  160.0124 N.ar    1  UNL1       -0.2053
     29 C         143.7879  140.1862  159.3785 C.ar    1  UNL1        0.2014
     30 N         144.0778  140.2603  157.9086 N.ar    1  UNL1       -0.2073
     31 C         144.7484  141.5737  157.6341 C.ar    1  UNL1        0.1613
     32 C         145.2129  142.0636  156.2946 C.3     1  UNL1        0.0756
     33 N         144.8730  142.3112  158.9343 N.ar    1  UNL1       -0.1487
     34 O         142.8725  143.9595  160.8736 O.3     1  UNL1       -0.4699
     35 C         141.5108  143.6524  160.3246 C.3     1  UNL1        0.2525
@<TRIPOS>BOND
     1    17    18    1
     2    18     1    1
     3     1     2   ar
     4     2     3   ar
     5     3    20    1
     6    20    22    1
     7    22    23   ar
     8    23    24   ar
     9    24    25   ar
    10    25    28    1
    11    28    29   ar
    12    29    30   ar
    13    30    31   ar
    14    31    32    1
    15    31    33   ar
    16    25    26   ar
    17    26    34    1
    18    34    35    1
    19    26    27   ar
    20     3     4   ar
    21     4     5   ar
    22     5     6   ar
    23     6     7    1
    24     7     8    1
    25     8     9    1
    26     9    10    1
    27    10    11   ar
    28    11    12   ar
    29    12    13   ar
    30    13    14    1
    31    13    15   ar
    32    15    16   ar
    33     6     1   ar
    34    16    10   ar
    35    27    22   ar
    36     9     5    1
    37    33    28   ar
    38    18    19    1
    39    20    21    1
@<TRIPOS>MOLECULE
*****
 35 39 0 0 0
SMALL
GASTEIGER

@<TRIPOS>ATOM
      1 C         143.2981  142.2394  168.3675 C.ar    1  UNL1        0.1285
      2 N         144.0389  142.8961  167.2405 N.ar    1  UNL1       -0.1992
      3 C         143.6152  142.6535  165.8223 C.ar    1  UNL1        0.2215
      4 N         142.4506  141.7541  165.5308 N.ar    1  UNL1       -0.2179
      5 C         141.7098  141.0974  166.6577 C.ar    1  UNL1        0.0642
      6 C         142.1335  141.3400  168.0760 C.ar    1  UNL1        0.0232
      7 C         141.2182  140.5606  168.9731 C.3     1  UNL1        0.0311
      8 C         140.2288  139.8363  168.1091 C.3     1  UNL1        0.0151
      9 C         140.5326  140.1681  166.6782 C.3     1  UNL1        0.0627
     10 C         139.7896  139.6597  165.4784 C.ar    1  UNL1       -0.0168
     11 C         139.9580  138.2350  165.0402 C.ar    1  UNL1       -0.0016
     12 C         139.2150  137.7266  163.8403 C.ar    1  UNL1        0.0293
     13 C         138.3037  138.6428  163.0788 C.ar    1  UNL1        0.1401
     14 F         137.5607  138.1344  161.8790 F       1  UNL1       -0.2042
     15 C         138.1354  140.0675  163.5170 C.ar    1  UNL1        0.0293
     16 C         138.8783  140.5759  164.7168 C.ar    1  UNL1       -0.0016
     17 C         142.8663  143.3169  170.6918 C.3     1  UNL1        0.1096
     18 N         143.7219  142.4820  169.7858 N.pl3   1  UNL1       -0.3168
     19 H         144.5616  142.0933  170.1220 H       1  UNL1        0.1482
     20 N         144.3561  143.3102  164.6953 N.pl3   1  UNL1       -0.2824
     21 H         145.2977  143.5729  164.8122 H       1  UNL1        0.1551
     22 C         143.6622  143.5665  163.3904 C.ar    1  UNL1        0.0536
     23 C         144.1979  142.9647  162.1251 C.ar    1  UNL1        0.0164
     24 C         143.5041  143.2210  160.8202 C.ar    1  UNL1        0.0236
     25 C         142.2744  144.0793  160.7805 C.ar    1  UNL1        0.1185
     26 C         141.7388  144.6811  162.0457 C.ar    1  UNL1        0.1575
     27 C         142.4327  144.4248  163.3507 C.ar    1  UNL1        0.0531
     28 N         141.5806  144.3357  159.4756 N.ar    1  UNL1       -0.2053
     29 C         140.4585  143.5239  158.8993 C.ar    1  UNL1        0.2014
     30 N         140.0714  144.1353  157.5854 N.ar    1  UNL1       -0.2073
     31 C         140.9542  145.3249  157.3497 C.ar    1  UNL1        0.1613
     32 C         140.9118  146.2315  156.1553 C.3     1  UNL1        0.0756
     33 N         141.8870  145.4487  158.5179 N.ar    1  UNL1       -0.1487
     34 O         140.5092  145.5394  162.0061 O.3     1  UNL1       -0.4699
     35 C         139.3741  145.2675  162.9481 C.3     1  UNL1        0.2525
@<TRIPOS>BOND
     1    17    18    1
     2    18     1    1
     3     1     2   ar
     4     2     3   ar
     5     3    20    1
     6    20    22    1
     7    22    23   ar
     8    23    24   ar
     9    24    25   ar
    10    25    28    1
    11    28    29   ar
    12    29    30   ar
    13    30    31   ar
    14    31    32    1
    15    31    33   ar
    16    25    26   ar
    17    26    34    1
    18    34    35    1
    19    26    27   ar
    20     3     4   ar
    21     4     5   ar
    22     5     6   ar
    23     6     7    1
    24     7     8    1
    25     8     9    1
    26     9    10    1
    27    10    11   ar
    28    11    12   ar
    29    12    13   ar
    30    13    14    1
    31    13    15   ar
    32    15    16   ar
    33     6     1   ar
    34    16    10   ar
    35    27    22   ar
    36     9     5    1
    37    33    28   ar
    38    18    19    1
    39    20    21    1
@<TRIPOS>MOLECULE
*****
 35 39 0 0 0
SMALL
GASTEIGER

@<TRIPOS>ATOM
      1 C         138.2753  143.0925  163.2946 C.ar    1  UNL1        0.1285
      2 N         138.1288  141.8067  162.5360 N.ar    1  UNL1       -0.1992
      3 C         138.6586  140.5290  163.1162 C.ar    1  UNL1        0.2215
      4 N         139.3349  140.5370  164.4550 N.ar    1  UNL1       -0.2179
      5 C         139.4814  141.8227  165.2136 C.ar    1  UNL1        0.0642
      6 C         138.9516  143.1004  164.6334 C.ar    1  UNL1        0.0232
      7 C         139.2397  144.2056  165.6058 C.3     1  UNL1        0.0311
      8 C         139.9476  143.6109  166.7870 C.3     1  UNL1        0.0151
      9 C         140.0969  142.1382  166.5446 C.3     1  UNL1        0.0627
     10 C         140.7476  141.1538  167.4707 C.ar    1  UNL1       -0.0168
     11 C         142.0187  140.4689  167.0643 C.ar    1  UNL1       -0.0016
     12 C         142.6695  139.4844  167.9904 C.ar    1  UNL1        0.0293
     13 C         142.0491  139.1850  169.3228 C.ar    1  UNL1        0.1401
     14 F         142.6997  138.2006  170.2489 F       1  UNL1       -0.2042
     15 C         140.7779  139.8699  169.7291 C.ar    1  UNL1        0.0293
     16 C         140.1272  140.8543  168.8032 C.ar    1  UNL1       -0.0016
     17 C         138.6958  145.4229  162.2257 C.3     1  UNL1        0.1096
     18 N         137.7455  144.3702  162.7143 N.pl3   1  UNL1       -0.3168
     19 H         136.7740  144.5179  162.6540 H       1  UNL1        0.1482
     20 N         138.5121  139.2432  162.3576 N.pl3   1  UNL1       -0.2824
     21 H         137.7984  138.6088  162.5973 H       1  UNL1        0.1551
     22 C         139.4529  138.9242  161.2338 C.ar    1  UNL1        0.0536
     23 C         138.9869  139.0310  159.8120 C.ar    1  UNL1        0.0164
     24 C         139.9278  138.7119  158.6882 C.ar    1  UNL1        0.0236
     25 C         141.3349  138.2859  158.9863 C.ar    1  UNL1        0.1185
     26 C         141.8009  138.1791  160.4079 C.ar    1  UNL1        0.1575
     27 C         140.8600  138.4982  161.5318 C.ar    1  UNL1        0.0531
     28 N         142.2757  137.9669  157.8625 N.ar    1  UNL1       -0.2053
     29 C         143.1782  138.9409  157.1648 C.ar    1  UNL1        0.2014
     30 N         143.9396  138.1937  156.1102 N.ar    1  UNL1       -0.2073
     31 C         143.5077  136.7580  156.1562 C.ar    1  UNL1        0.1613
     32 C         144.0150  135.6559  155.2740 C.3     1  UNL1        0.0756
     33 N         142.4794  136.6178  157.2392 N.ar    1  UNL1       -0.1487
     34 O         143.2080  137.7531  160.7060 O.3     1  UNL1       -0.4699
     35 C         143.9149  138.2924  161.9140 C.3     1  UNL1        0.2525
@<TRIPOS>BOND
     1    17    18    1
     2    18     1    1
     3     1     2   ar
     4     2     3   ar
     5     3    20    1
     6    20    22    1
     7    22    23   ar
     8    23    24   ar
     9    24    25   ar
    10    25    28    1
    11    28    29   ar
    12    29    30   ar
    13    30    31   ar
    14    31    32    1
    15    31    33   ar
    16    25    26   ar
    17    26    34    1
    18    34    35    1
    19    26    27   ar
    20     3     4   ar
    21     4     5   ar
    22     5     6   ar
    23     6     7    1
    24     7     8    1
    25     8     9    1
    26     9    10    1
    27    10    11   ar
    28    11    12   ar
    29    12    13   ar
    30    13    14    1
    31    13    15   ar
    32    15    16   ar
    33     6     1   ar
    34    16    10   ar
    35    27    22   ar
    36     9     5    1
    37    33    28   ar
    38    18    19    1
    39    20    21    1
@<TRIPOS>MOLECULE
*****
 35 39 0 0 0
SMALL
GASTEIGER

@<TRIPOS>ATOM
      1 C         141.6669  138.3847  163.3573 C.ar    1  UNL1        0.1285
      2 N         140.4081  138.8680  162.7000 N.ar    1  UNL1       -0.1992
      3 C         139.4625  139.7564  163.4526 C.ar    1  UNL1        0.2215
      4 N         139.7756  140.1616  164.8625 N.ar    1  UNL1       -0.2179
      5 C         141.0343  139.6783  165.5198 C.ar    1  UNL1        0.0642
      6 C         141.9800  138.7899  164.7672 C.ar    1  UNL1        0.0232
      7 C         143.1353  138.4725  165.6696 C.3     1  UNL1        0.0311
      8 C         142.9037  139.1647  166.9800 C.3     1  UNL1        0.0151
      9 C         141.6052  139.9100  166.8874 C.3     1  UNL1        0.0627
     10 C         140.9863  140.7410  167.9720 C.ar    1  UNL1       -0.0168
     11 C         141.4099  142.1679  168.1577 C.ar    1  UNL1       -0.0016
     12 C         140.7910  142.9989  169.2424 C.ar    1  UNL1        0.0293
     13 C         139.7485  142.4031  170.1412 C.ar    1  UNL1        0.1401
     14 F         139.1296  143.2340  171.2259 F       1  UNL1       -0.2042
     15 C         139.3249  140.9761  169.9555 C.ar    1  UNL1        0.0293
     16 C         139.9437  140.1451  168.8710 C.ar    1  UNL1       -0.0016
     17 C         143.6739  138.0986  161.7324 C.3     1  UNL1        0.1096
     18 N         142.6126  137.4963  162.6046 N.pl3   1  UNL1       -0.3168
     19 H         142.5367  136.5179  162.6831 H       1  UNL1        0.1482
     20 N         138.2037  140.2397  162.7954 N.pl3   1  UNL1       -0.2824
     21 H         137.3457  140.1850  163.2750 H       1  UNL1        0.1551
     22 C         138.2523  140.8062  161.4073 C.ar    1  UNL1        0.0536
     23 C         137.7421  140.0001  160.2498 C.ar    1  UNL1        0.0164
     24 C         137.7906  140.5666  158.8618 C.ar    1  UNL1        0.0236
     25 C         138.3495  141.9395  158.6313 C.ar    1  UNL1        0.1185
     26 C         138.8598  142.7456  159.7887 C.ar    1  UNL1        0.1575
     27 C         138.8112  142.1790  161.1768 C.ar    1  UNL1        0.0531
     28 N         138.3981  142.5060  157.2432 N.ar    1  UNL1       -0.2053
     29 C         139.6236  142.6421  156.3890 C.ar    1  UNL1        0.2014
     30 N         139.2127  143.2562  155.0835 N.ar    1  UNL1       -0.2073
     31 C         137.7333  143.4995  155.1310 C.ar    1  UNL1        0.1613
     32 C         136.9031  144.1010  154.0360 C.3     1  UNL1        0.0756
     33 N         137.2299  143.0359  156.4658 N.ar    1  UNL1       -0.1487
     34 O         139.4186  144.1184  159.5582 O.3     1  UNL1       -0.4699
     35 C         140.8936  144.3590  159.6863 C.3     1  UNL1        0.2525
@<TRIPOS>BOND
     1    17    18    1
     2    18     1    1
     3     1     2   ar
     4     2     3   ar
     5     3    20    1
     6    20    22    1
     7    22    23   ar
     8    23    24   ar
     9    24    25   ar
    10    25    28    1
    11    28    29   ar
    12    29    30   ar
    13    30    31   ar
    14    31    32    1
    15    31    33   ar
    16    25    26   ar
    17    26    34    1
    18    34    35    1
    19    26    27   ar
    20     3     4   ar
    21     4     5   ar
    22     5     6   ar
    23     6     7    1
    24     7     8    1
    25     8     9    1
    26     9    10    1
    27    10    11   ar
    28    11    12   ar
    29    12    13   ar
    30    13    14    1
    31    13    15   ar
    32    15    16   ar
    33     6     1   ar
    34    16    10   ar
    35    27    22   ar
    36     9     5    1
    37    33    28   ar
    38    18    19    1
    39    20    21    1
