@<TRIPOS>MOLECULE
*****
 30 32 0 0 0
SMALL
GASTEIGER

@<TRIPOS>ATOM
      1 N         139.3517  140.9964  164.6448 N.pl3   1  UNL1       -0.3034
      2 C         139.9304  145.2193  161.5284 C.2     1  UNL1        0.2526
      3 O         139.1551  146.4507  161.1642 O.2     1  UNL1       -0.2723
      4 N         139.3596  144.2354  162.5060 N.am    1  UNL1       -0.2758
      5 C         138.0330  144.3477  163.1972 C.3     1  UNL1        0.0953
      6 C         137.8686  143.1480  164.0826 C.3     1  UNL1        0.0430
      7 C         139.0936  142.2943  163.9385 C.3     1  UNL1        0.0946
      8 C         140.0150  142.9663  162.9642 C.3     1  UNL1        0.1131
      9 C         141.3826  144.5871  159.4689 C.3     1  UNL1        0.0417
     10 C         141.2767  144.9720  160.9147 C.3     1  UNL1        0.1869
     11 O         142.5169  145.1096  161.7470 O.3     1  UNL1       -0.3758
     12 H         142.2731  145.3618  162.6514 H       1  UNL1        0.2110
     13 C         139.5989  140.9839  166.1243 C.ar    1  UNL1        0.0490
     14 C         139.1215  139.8296  166.9547 C.ar    1  UNL1        0.0153
     15 C         139.3687  139.8171  168.4342 C.ar    1  UNL1        0.0124
     16 C         140.0932  140.9589  169.0832 C.ar    1  UNL1        0.0791
     17 C         140.5706  142.1133  168.2527 C.ar    1  UNL1        0.0685
     18 CL        141.2952  143.2551  168.9017 Cl      1  UNL1       -0.0815
     19 C         140.3234  142.1258  166.7733 C.ar    1  UNL1        0.0266
     20 C         140.3404  140.9464  170.5626 C.1     1  UNL1        0.1013
     21 N         140.5876  140.9340  172.0421 N.1     1  UNL1       -0.1908
     22 C         139.3626  139.7111  163.8718 C.3     1  UNL1        0.1186
     23 C         140.6498  139.1851  163.3092 C.ar    1  UNL1        0.0090
     24 C         141.9522  139.5260  163.9707 C.ar    1  UNL1        0.0096
     25 C         143.2394  139.0000  163.4081 C.ar    1  UNL1        0.0575
     26 CL        144.5418  139.3409  164.0696 Cl      1  UNL1       -0.0823
     27 C         143.2242  138.1333  162.1840 C.ar    1  UNL1        0.0122
     28 C         141.9218  137.7924  161.5224 C.ar    1  UNL1        0.0120
     29 C         140.6346  138.3183  162.0850 C.ar    1  UNL1        0.0553
     30 CL        139.3322  137.9775  161.4235 Cl      1  UNL1       -0.0825
@<TRIPOS>BOND
     1    10     9    1
     2    10    11    1
     3    10     2    1
     4     2     3    2
     5     2     4   am
     6     4     5    1
     7     5     6    1
     8     6     7    1
     9     7     1    1
    10     1    22    1
    11    22    23    1
    12    23    24   ar
    13    24    25   ar
    14    25    26    1
    15    25    27   ar
    16    27    28   ar
    17    28    29   ar
    18    29    30    1
    19     1    13    1
    20    13    14   ar
    21    14    15   ar
    22    15    16   ar
    23    16    20    1
    24    20    21    3
    25    16    17   ar
    26    17    18    1
    27    17    19   ar
    28     7     8    1
    29     8     4    1
    30    29    23   ar
    31    19    13   ar
    32    11    12    1
@<TRIPOS>MOLECULE
*****
 30 32 0 0 0
SMALL
GASTEIGER

@<TRIPOS>ATOM
      1 N         139.9429  140.5238  165.9559 N.pl3   1  UNL1       -0.3034
      2 C         141.4453  142.0506  170.7821 C.2     1  UNL1        0.2526
      3 O         140.9726  141.8972  172.1973 O.2     1  UNL1       -0.2723
      4 N         140.6746  141.4184  169.6613 N.am    1  UNL1       -0.2758
      5 C         139.4200  140.6082  169.8011 C.3     1  UNL1        0.0953
      6 C         138.9931  140.1745  168.4299 C.3     1  UNL1        0.0430
      7 C         139.9840  140.7166  167.4429 C.3     1  UNL1        0.0946
      8 C         141.0232  141.4854  168.2039 C.3     1  UNL1        0.1131
      9 C         143.8310  142.1887  169.7625 C.3     1  UNL1        0.0417
     10 C         142.6888  142.8362  170.4877 C.3     1  UNL1        0.1869
     11 O         142.7900  144.2693  170.9188 O.3     1  UNL1       -0.3758
     12 H         141.9721  144.5296  171.3706 H       1  UNL1        0.2110
     13 C         139.8019  141.7105  165.0494 C.ar    1  UNL1        0.0490
     14 C         138.5460  141.8998  164.2514 C.ar    1  UNL1        0.0153
     15 C         138.4051  143.0865  163.3448 C.ar    1  UNL1        0.0124
     16 C         139.5201  144.0840  163.2363 C.ar    1  UNL1        0.0791
     17 C         140.7761  143.8948  164.0343 C.ar    1  UNL1        0.0685
     18 CL        141.8910  144.8922  163.9257 Cl      1  UNL1       -0.0815
     19 C         140.9170  142.7080  164.9408 C.ar    1  UNL1        0.0266
     20 C         139.3791  145.2707  162.3298 C.1     1  UNL1        0.1013
     21 N         139.2382  146.4575  161.4232 N.1     1  UNL1       -0.1908
     22 C         140.0427  139.1443  165.3755 C.3     1  UNL1        0.1186
     23 C         141.1168  138.8262  164.3779 C.ar    1  UNL1        0.0090
     24 C         142.5310  139.2541  164.6365 C.ar    1  UNL1        0.0096
     25 C         143.6051  138.9360  163.6390 C.ar    1  UNL1        0.0575
     26 CL        145.0194  139.3639  163.8976 Cl      1  UNL1       -0.0823
     27 C         143.2651  138.1900  162.3829 C.ar    1  UNL1        0.0122
     28 C         141.8508  137.7621  162.1243 C.ar    1  UNL1        0.0120
     29 C         140.7767  138.0802  163.1218 C.ar    1  UNL1        0.0553
     30 CL        139.3625  137.6523  162.8632 Cl      1  UNL1       -0.0825
@<TRIPOS>BOND
     1    10     9    1
     2    10    11    1
     3    10     2    1
     4     2     3    2
     5     2     4   am
     6     4     5    1
     7     5     6    1
     8     6     7    1
     9     7     1    1
    10     1    22    1
    11    22    23    1
    12    23    24   ar
    13    24    25   ar
    14    25    26    1
    15    25    27   ar
    16    27    28   ar
    17    28    29   ar
    18    29    30    1
    19     1    13    1
    20    13    14   ar
    21    14    15   ar
    22    15    16   ar
    23    16    20    1
    24    20    21    3
    25    16    17   ar
    26    17    18    1
    27    17    19   ar
    28     7     8    1
    29     8     4    1
    30    29    23   ar
    31    19    13   ar
    32    11    12    1
@<TRIPOS>MOLECULE
*****
 30 32 0 0 0
SMALL
GASTEIGER

@<TRIPOS>ATOM
      1 N         142.5504  141.5581  165.7746 N.pl3   1  UNL1       -0.3034
      2 C         141.0677  141.1522  170.8261 C.2     1  UNL1        0.2526
      3 O         141.5144  141.6638  172.1635 O.2     1  UNL1       -0.2723
      4 N         141.8191  141.5377  169.5865 N.am    1  UNL1       -0.2758
      5 C         143.0292  142.4224  169.5283 C.3     1  UNL1        0.0953
      6 C         143.4504  142.5377  168.0932 C.3     1  UNL1        0.0430
      7 C         142.5006  141.7243  167.2646 C.3     1  UNL1        0.0946
      8 C         141.4925  141.1063  168.1875 C.3     1  UNL1        0.1131
      9 C         138.7811  140.5620  169.7431 C.3     1  UNL1        0.0417
     10 C         139.8695  140.2551  170.7284 C.3     1  UNL1        0.1869
     11 O         139.7599  139.0510  171.6162 O.3     1  UNL1       -0.3758
     12 H         140.5412  138.9992  172.1887 H       1  UNL1        0.2110
     13 C         141.9348  142.5957  164.8833 C.ar    1  UNL1        0.0490
     14 C         142.6060  142.9722  163.5959 C.ar    1  UNL1        0.0153
     15 C         141.9904  144.0098  162.7046 C.ar    1  UNL1        0.0124
     16 C         140.7035  144.6709  163.1007 C.ar    1  UNL1        0.0791
     17 C         140.0322  144.2944  164.3883 C.ar    1  UNL1        0.0685
     18 CL        138.7454  144.9554  164.7844 Cl      1  UNL1       -0.0815
     19 C         140.6478  143.2568  165.2796 C.ar    1  UNL1        0.0266
     20 C         140.0879  145.7085  162.2094 C.1     1  UNL1        0.1013
     21 N         139.4723  146.7461  161.3181 N.1     1  UNL1       -0.1908
     22 C         143.2157  140.3544  165.1760 C.3     1  UNL1        0.1186
     23 C         142.3911  139.3026  164.4952 C.ar    1  UNL1        0.0090
     24 C         141.1006  138.8473  165.1094 C.ar    1  UNL1        0.0096
     25 C         140.2759  137.7954  164.4285 C.ar    1  UNL1        0.0575
     26 CL        138.9853  137.3401  165.0428 Cl      1  UNL1       -0.0823
     27 C         140.7418  137.1988  163.1336 C.ar    1  UNL1        0.0122
     28 C         142.0323  137.6541  162.5193 C.ar    1  UNL1        0.0120
     29 C         142.8570  138.7060  163.2002 C.ar    1  UNL1        0.0553
     30 CL        144.1475  139.1613  162.5860 Cl      1  UNL1       -0.0825
@<TRIPOS>BOND
     1    10     9    1
     2    10    11    1
     3    10     2    1
     4     2     3    2
     5     2     4   am
     6     4     5    1
     7     5     6    1
     8     6     7    1
     9     7     1    1
    10     1    22    1
    11    22    23    1
    12    23    24   ar
    13    24    25   ar
    14    25    26    1
    15    25    27   ar
    16    27    28   ar
    17    28    29   ar
    18    29    30    1
    19     1    13    1
    20    13    14   ar
    21    14    15   ar
    22    15    16   ar
    23    16    20    1
    24    20    21    3
    25    16    17   ar
    26    17    18    1
    27    17    19   ar
    28     7     8    1
    29     8     4    1
    30    29    23   ar
    31    19    13   ar
    32    11    12    1
@<TRIPOS>MOLECULE
*****
 30 32 0 0 0
SMALL
GASTEIGER

@<TRIPOS>ATOM
      1 N         142.2005  139.9294  165.3557 N.pl3   1  UNL1       -0.3034
      2 C         138.0705  139.2120  162.1450 C.2     1  UNL1        0.2526
      3 O         137.3588  138.0698  161.4825 O.2     1  UNL1       -0.2723
      4 N         139.2603  138.9483  163.0195 N.am    1  UNL1       -0.2758
      5 C         139.8506  137.6031  163.3230 C.3     1  UNL1        0.0953
      6 C         141.0239  137.8069  164.2352 C.3     1  UNL1        0.0430
      7 C         141.1586  139.2780  164.4953 C.3     1  UNL1        0.0946
      8 C         140.0687  139.9834  163.7440 C.3     1  UNL1        0.1131
      9 C         138.0986  141.4145  160.7674 C.3     1  UNL1        0.0417
     10 C         137.5923  140.6178  161.9330 C.3     1  UNL1        0.1869
     11 O         136.6077  141.2268  162.8867 O.3     1  UNL1       -0.3758
     12 H         136.3856  140.5828  163.5772 H       1  UNL1        0.2110
     13 C         141.8475  140.3973  166.7365 C.ar    1  UNL1        0.0490
     14 C         140.5180  140.0403  167.3323 C.ar    1  UNL1        0.0153
     15 C         140.1650  140.5082  168.7130 C.ar    1  UNL1        0.0124
     16 C         141.1414  141.3331  169.4979 C.ar    1  UNL1        0.0791
     17 C         142.4710  141.6901  168.9021 C.ar    1  UNL1        0.0685
     18 CL        143.4474  142.5150  169.6870 Cl      1  UNL1       -0.0815
     19 C         142.8240  141.2222  167.5214 C.ar    1  UNL1        0.0266
     20 C         140.7884  141.8010  170.8787 C.1     1  UNL1        0.1013
     21 N         140.4353  142.2689  172.2594 N.1     1  UNL1       -0.1908
     22 C         143.5954  140.1128  164.8354 C.3     1  UNL1        0.1186
     23 C         143.8724  141.1402  163.7783 C.ar    1  UNL1        0.0090
     24 C         143.7855  142.6004  164.1104 C.ar    1  UNL1        0.0096
     25 C         144.0626  143.6278  163.0532 C.ar    1  UNL1        0.0575
     26 CL        143.9757  145.0880  163.3854 Cl      1  UNL1       -0.0823
     27 C         144.4266  143.1951  161.6639 C.ar    1  UNL1        0.0122
     28 C         144.5135  141.7349  161.3317 C.ar    1  UNL1        0.0120
     29 C         144.2365  140.7075  162.3889 C.ar    1  UNL1        0.0553
     30 CL        144.3234  139.2473  162.0568 Cl      1  UNL1       -0.0825
@<TRIPOS>BOND
     1    10     9    1
     2    10    11    1
     3    10     2    1
     4     2     3    2
     5     2     4   am
     6     4     5    1
     7     5     6    1
     8     6     7    1
     9     7     1    1
    10     1    22    1
    11    22    23    1
    12    23    24   ar
    13    24    25   ar
    14    25    26    1
    15    25    27   ar
    16    27    28   ar
    17    28    29   ar
    18    29    30    1
    19     1    13    1
    20    13    14   ar
    21    14    15   ar
    22    15    16   ar
    23    16    20    1
    24    20    21    3
    25    16    17   ar
    26    17    18    1
    27    17    19   ar
    28     7     8    1
    29     8     4    1
    30    29    23   ar
    31    19    13   ar
    32    11    12    1
@<TRIPOS>MOLECULE
*****
 30 32 0 0 0
SMALL
GASTEIGER

@<TRIPOS>ATOM
      1 N         142.4158  139.8865  165.0879 N.pl3   1  UNL1       -0.3034
      2 C         138.1155  139.2762  162.0855 C.2     1  UNL1        0.2526
      3 O         137.3791  138.1595  161.4067 O.2     1  UNL1       -0.2723
      4 N         139.3565  138.9849  162.8759 N.am    1  UNL1       -0.2758
      5 C         139.9778  137.6342  163.0756 C.3     1  UNL1        0.0953
      6 C         141.1996  137.8076  163.9286 C.3     1  UNL1        0.0430
      7 C         141.3332  139.2654  164.2559 C.3     1  UNL1        0.0946
      8 C         140.1941  139.9929  163.6053 C.3     1  UNL1        0.1131
      9 C         138.0906  141.5671  160.8601 C.3     1  UNL1        0.0417
     10 C         137.6106  140.6843  161.9737 C.3     1  UNL1        0.1869
     11 O         136.6257  141.2095  162.9758 O.3     1  UNL1       -0.3758
     12 H         136.4222  140.5164  163.6230 H       1  UNL1        0.2110
     13 C         142.1162  140.3534  166.4815 C.ar    1  UNL1        0.0490
     14 C         141.4401  141.6742  166.7009 C.ar    1  UNL1        0.0153
     15 C         141.1404  142.1411  168.0946 C.ar    1  UNL1        0.0124
     16 C         141.5169  141.2871  169.2688 C.ar    1  UNL1        0.0791
     17 C         142.1930  139.9661  169.0495 C.ar    1  UNL1        0.0685
     18 CL        142.5695  139.1122  170.2237 Cl      1  UNL1       -0.0815
     19 C         142.4927  139.4993  167.6558 C.ar    1  UNL1        0.0266
     20 C         141.2172  141.7540  170.6625 C.1     1  UNL1        0.1013
     21 N         140.9176  142.2208  172.0561 N.1     1  UNL1       -0.1908
     22 C         143.7981  140.0407  164.5262 C.3     1  UNL1        0.1186
     23 C         144.0351  140.9487  163.3559 C.ar    1  UNL1        0.0090
     24 C         143.9059  140.4199  161.9582 C.ar    1  UNL1        0.0096
     25 C         144.1430  141.3278  160.7879 C.ar    1  UNL1        0.0575
     26 CL        144.0138  140.7990  159.3902 Cl      1  UNL1       -0.0823
     27 C         144.5092  142.7645  161.0154 C.ar    1  UNL1        0.0122
     28 C         144.6384  143.2933  162.4132 C.ar    1  UNL1        0.0120
     29 C         144.4014  142.3854  163.5835 C.ar    1  UNL1        0.0553
     30 CL        144.5306  142.9142  164.9812 Cl      1  UNL1       -0.0825
@<TRIPOS>BOND
     1    10     9    1
     2    10    11    1
     3    10     2    1
     4     2     3    2
     5     2     4   am
     6     4     5    1
     7     5     6    1
     8     6     7    1
     9     7     1    1
    10     1    22    1
    11    22    23    1
    12    23    24   ar
    13    24    25   ar
    14    25    26    1
    15    25    27   ar
    16    27    28   ar
    17    28    29   ar
    18    29    30    1
    19     1    13    1
    20    13    14   ar
    21    14    15   ar
    22    15    16   ar
    23    16    20    1
    24    20    21    3
    25    16    17   ar
    26    17    18    1
    27    17    19   ar
    28     7     8    1
    29     8     4    1
    30    29    23   ar
    31    19    13   ar
    32    11    12    1
@<TRIPOS>MOLECULE
*****
 30 32 0 0 0
SMALL
GASTEIGER

@<TRIPOS>ATOM
      1 N         142.8995  140.5924  165.4571 N.pl3   1  UNL1       -0.3034
      2 C         142.0368  141.7349  170.5395 C.2     1  UNL1        0.2526
      3 O         141.9289  141.0023  171.8439 O.2     1  UNL1       -0.2723
      4 N         142.3042  140.9765  169.2733 N.am    1  UNL1       -0.2758
      5 C         142.4855  139.4921  169.1562 C.3     1  UNL1        0.0953
      6 C         142.7306  139.1675  167.7123 C.3     1  UNL1        0.0430
      7 C         142.7007  140.4514  166.9372 C.3     1  UNL1        0.0946
      8 C         142.4372  141.5693  167.9019 C.3     1  UNL1        0.1131
      9 C         140.6240  143.8321  169.9431 C.3     1  UNL1        0.0417
     10 C         141.8773  143.2259  170.5013 C.3     1  UNL1        0.1869
     11 O         142.9712  144.1107  171.0214 O.3     1  UNL1       -0.3758
     12 H         143.7043  143.5632  171.3434 H       1  UNL1        0.2110
     13 C         142.3151  141.7673  164.7304 C.ar    1  UNL1        0.0490
     14 C         140.8947  141.7215  164.2506 C.ar    1  UNL1        0.0153
     15 C         140.3102  142.8964  163.5239 C.ar    1  UNL1        0.0124
     16 C         141.1462  144.1171  163.2772 C.ar    1  UNL1        0.0791
     17 C         142.5667  144.1630  163.7570 C.ar    1  UNL1        0.0685
     18 CL        143.4026  145.3837  163.5103 Cl      1  UNL1       -0.0815
     19 C         143.1511  142.9881  164.4837 C.ar    1  UNL1        0.0266
     20 C         140.5618  145.2920  162.5505 C.1     1  UNL1        0.1013
     21 N         139.9773  146.4670  161.8239 N.1     1  UNL1       -0.1908
     22 C         143.6827  139.5585  164.7037 C.3     1  UNL1        0.1186
     23 C         143.1972  139.0749  163.3693 C.ar    1  UNL1        0.0090
     24 C         143.8096  139.6106  162.1092 C.ar    1  UNL1        0.0096
     25 C         143.3241  139.1270  160.7749 C.ar    1  UNL1        0.0575
     26 CL        143.9366  139.6627  159.5147 Cl      1  UNL1       -0.0823
     27 C         142.2262  138.1077  160.7007 C.ar    1  UNL1        0.0122
     28 C         141.6137  137.5720  161.9609 C.ar    1  UNL1        0.0120
     29 C         142.0992  138.0556  163.2952 C.ar    1  UNL1        0.0553
     30 CL        141.4868  137.5199  164.5553 Cl      1  UNL1       -0.0825
@<TRIPOS>BOND
     1    10     9    1
     2    10    11    1
     3    10     2    1
     4     2     3    2
     5     2     4   am
     6     4     5    1
     7     5     6    1
     8     6     7    1
     9     7     1    1
    10     1    22    1
    11    22    23    1
    12    23    24   ar
    13    24    25   ar
    14    25    26    1
    15    25    27   ar
    16    27    28   ar
    17    28    29   ar
    18    29    30    1
    19     1    13    1
    20    13    14   ar
    21    14    15   ar
    22    15    16   ar
    23    16    20    1
    24    20    21    3
    25    16    17   ar
    26    17    18    1
    27    17    19   ar
    28     7     8    1
    29     8     4    1
    30    29    23   ar
    31    19    13   ar
    32    11    12    1
@<TRIPOS>MOLECULE
*****
 30 32 0 0 0
SMALL
GASTEIGER

@<TRIPOS>ATOM
      1 N         142.7212  142.3328  164.9980 N.pl3   1  UNL1       -0.3034
      2 C         139.7814  144.5240  161.1984 C.2     1  UNL1        0.2526
      3 O         139.6019  145.8720  160.5656 O.2     1  UNL1       -0.2723
      4 N         140.7794  144.3409  162.3031 N.am    1  UNL1       -0.2758
      5 C         141.6646  145.4072  162.8772 C.3     1  UNL1        0.0953
      6 C         142.4998  144.7847  163.9567 C.3     1  UNL1        0.0430
      7 C         142.1307  143.3338  164.0496 C.3     1  UNL1        0.0946
      8 C         141.0675  143.0595  163.0276 C.3     1  UNL1        0.1131
      9 C         139.4939  142.4541  159.6547 C.3     1  UNL1        0.0417
     10 C         138.9627  143.3590  160.7265 C.3     1  UNL1        0.1869
     11 O         137.6128  143.0990  161.3266 O.3     1  UNL1       -0.3758
     12 H         137.4230  143.7716  161.9993 H       1  UNL1        0.2110
     13 C         142.2775  142.3045  166.4306 C.ar    1  UNL1        0.0490
     14 C         140.8185  142.1974  166.7618 C.ar    1  UNL1        0.0153
     15 C         140.3748  142.1691  168.1944 C.ar    1  UNL1        0.0124
     16 C         141.3900  142.2478  169.2957 C.ar    1  UNL1        0.0791
     17 C         142.8491  142.3548  168.9645 C.ar    1  UNL1        0.0685
     18 CL        143.8644  142.4335  170.0658 Cl      1  UNL1       -0.0815
     19 C         143.2929  142.3832  167.5319 C.ar    1  UNL1        0.0266
     20 C         140.9463  142.2194  170.7283 C.1     1  UNL1        0.1013
     21 N         140.5026  142.1911  172.1609 N.1     1  UNL1       -0.1908
     22 C         143.7555  141.3603  164.5138 C.3     1  UNL1        0.1186
     23 C         143.3487  140.1961  163.6598 C.ar    1  UNL1        0.0090
     24 C         142.4636  139.1248  164.2243 C.ar    1  UNL1        0.0096
     25 C         142.0569  137.9607  163.3703 C.ar    1  UNL1        0.0575
     26 CL        141.1717  136.8893  163.9350 Cl      1  UNL1       -0.0823
     27 C         142.5352  137.8679  161.9517 C.ar    1  UNL1        0.0122
     28 C         143.4204  138.9392  161.3870 C.ar    1  UNL1        0.0120
     29 C         143.8271  140.1034  162.2411 C.ar    1  UNL1        0.0553
     30 CL        144.7123  141.1747  161.6765 Cl      1  UNL1       -0.0825
@<TRIPOS>BOND
     1    10     9    1
     2    10    11    1
     3    10     2    1
     4     2     3    2
     5     2     4   am
     6     4     5    1
     7     5     6    1
     8     6     7    1
     9     7     1    1
    10     1    22    1
    11    22    23    1
    12    23    24   ar
    13    24    25   ar
    14    25    26    1
    15    25    27   ar
    16    27    28   ar
    17    28    29   ar
    18    29    30    1
    19     1    13    1
    20    13    14   ar
    21    14    15   ar
    22    15    16   ar
    23    16    20    1
    24    20    21    3
    25    16    17   ar
    26    17    18    1
    27    17    19   ar
    28     7     8    1
    29     8     4    1
    30    29    23   ar
    31    19    13   ar
    32    11    12    1
@<TRIPOS>MOLECULE
*****
 30 32 0 0 0
SMALL
GASTEIGER

@<TRIPOS>ATOM
      1 N         143.0874  142.3239  165.0302 N.pl3   1  UNL1       -0.3034
      2 C         139.3522  144.9946  162.4233 C.2     1  UNL1        0.2526
      3 O         139.2391  146.2563  161.6200 O.2     1  UNL1       -0.2723
      4 N         140.6732  144.5953  163.0108 N.am    1  UNL1       -0.2758
      5 C         141.9613  145.3529  162.8801 C.3     1  UNL1        0.0953
      6 C         143.0225  144.5941  163.6207 C.3     1  UNL1        0.0430
      7 C         142.3902  143.3678  164.2090 C.3     1  UNL1        0.0946
      8 C         140.9383  143.3685  163.8321 C.3     1  UNL1        0.1131
      9 C         137.4992  144.0692  163.9919 C.3     1  UNL1        0.0417
     10 C         138.1440  144.1321  162.6391 C.3     1  UNL1        0.1869
     11 O         137.5806  143.3326  161.5018 O.3     1  UNL1       -0.3758
     12 H         138.1114  143.4860  160.7046 H       1  UNL1        0.2110
     13 C         142.6195  142.0307  166.4249 C.ar    1  UNL1        0.0490
     14 C         141.3298  141.2970  166.6446 C.ar    1  UNL1        0.0153
     15 C         140.8619  141.0039  168.0393 C.ar    1  UNL1        0.0124
     16 C         141.6836  141.4444  169.2142 C.ar    1  UNL1        0.0791
     17 C         142.9734  142.1782  168.9945 C.ar    1  UNL1        0.0685
     18 CL        143.7952  142.6188  170.1695 Cl      1  UNL1       -0.0815
     19 C         143.4413  142.4714  167.5999 C.ar    1  UNL1        0.0266
     20 C         141.2157  141.1513  170.6089 C.1     1  UNL1        0.1013
     21 N         140.7478  140.8582  172.0036 N.1     1  UNL1       -0.1908
     22 C         144.2525  141.5732  164.4567 C.3     1  UNL1        0.1186
     23 C         144.0443  140.6250  163.3132 C.ar    1  UNL1        0.0090
     24 C         144.1516  141.1183  161.9007 C.ar    1  UNL1        0.0096
     25 C         143.9434  140.1702  160.7572 C.ar    1  UNL1        0.0575
     26 CL        144.0508  140.6636  159.3447 Cl      1  UNL1       -0.0823
     27 C         143.6278  138.7286  161.0262 C.ar    1  UNL1        0.0122
     28 C         143.5204  138.2352  162.4387 C.ar    1  UNL1        0.0120
     29 C         143.7287  139.1834  163.5822 C.ar    1  UNL1        0.0553
     30 CL        143.6213  138.6901  164.9946 Cl      1  UNL1       -0.0825
@<TRIPOS>BOND
     1    10     9    1
     2    10    11    1
     3    10     2    1
     4     2     3    2
     5     2     4   am
     6     4     5    1
     7     5     6    1
     8     6     7    1
     9     7     1    1
    10     1    22    1
    11    22    23    1
    12    23    24   ar
    13    24    25   ar
    14    25    26    1
    15    25    27   ar
    16    27    28   ar
    17    28    29   ar
    18    29    30    1
    19     1    13    1
    20    13    14   ar
    21    14    15   ar
    22    15    16   ar
    23    16    20    1
    24    20    21    3
    25    16    17   ar
    26    17    18    1
    27    17    19   ar
    28     7     8    1
    29     8     4    1
    30    29    23   ar
    31    19    13   ar
    32    11    12    1
@<TRIPOS>MOLECULE
*****
 30 32 0 0 0
SMALL
GASTEIGER

@<TRIPOS>ATOM
      1 N         141.4120  140.2422  165.4437 N.pl3   1  UNL1       -0.3034
      2 C         141.1593  141.7413  170.5003 C.2     1  UNL1        0.2526
      3 O         141.7864  141.3604  171.8086 O.2     1  UNL1       -0.2723
      4 N         141.5418  141.0142  169.2454 N.am    1  UNL1       -0.2758
      5 C         142.5312  139.8913  169.1438 C.3     1  UNL1        0.0953
      6 C         142.6029  139.4654  167.7072 C.3     1  UNL1        0.0430
      7 C         141.6579  140.3252  166.9212 C.3     1  UNL1        0.0946
      8 C         141.0022  141.2823  167.8718 C.3     1  UNL1        0.1131
      9 C         140.5377  144.1921  169.9025 C.3     1  UNL1        0.0417
     10 C         140.1497  142.8495  170.4471 C.3     1  UNL1        0.1869
     11 O         138.7521  142.6148  170.9386 O.3     1  UNL1       -0.3758
     12 H         138.6697  141.7015  171.2549 H       1  UNL1        0.2110
     13 C         141.0105  141.4693  164.6802 C.ar    1  UNL1        0.0490
     14 C         142.0494  142.2807  163.9646 C.ar    1  UNL1        0.0153
     15 C         141.6479  143.5079  163.2011 C.ar    1  UNL1        0.0124
     16 C         140.2075  143.9235  163.1532 C.ar    1  UNL1        0.0791
     17 C         139.1684  143.1121  163.8688 C.ar    1  UNL1        0.0685
     18 CL        137.7280  143.5278  163.8209 Cl      1  UNL1       -0.0815
     19 C         139.5699  141.8850  164.6323 C.ar    1  UNL1        0.0266
     20 C         139.8060  145.1507  162.3896 C.1     1  UNL1        0.1013
     21 N         139.4044  146.3778  161.6261 N.1     1  UNL1       -0.1908
     22 C         141.5675  138.9322  164.7299 C.3     1  UNL1        0.1186
     23 C         140.7373  138.6362  163.5162 C.ar    1  UNL1        0.0090
     24 C         141.3348  138.7735  162.1472 C.ar    1  UNL1        0.0096
     25 C         140.5046  138.4775  160.9334 C.ar    1  UNL1        0.0575
     26 CL        141.1022  138.6149  159.5644 Cl      1  UNL1       -0.0823
     27 C         139.0770  138.0443  161.0886 C.ar    1  UNL1        0.0122
     28 C         138.4795  137.9070  162.4576 C.ar    1  UNL1        0.0120
     29 C         139.3096  138.2029  163.6714 C.ar    1  UNL1        0.0553
     30 CL        138.7122  138.0656  165.0404 Cl      1  UNL1       -0.0825
@<TRIPOS>BOND
     1    10     9    1
     2    10    11    1
     3    10     2    1
     4     2     3    2
     5     2     4   am
     6     4     5    1
     7     5     6    1
     8     6     7    1
     9     7     1    1
    10     1    22    1
    11    22    23    1
    12    23    24   ar
    13    24    25   ar
    14    25    26    1
    15    25    27   ar
    16    27    28   ar
    17    28    29   ar
    18    29    30    1
    19     1    13    1
    20    13    14   ar
    21    14    15   ar
    22    15    16   ar
    23    16    20    1
    24    20    21    3
    25    16    17   ar
    26    17    18    1
    27    17    19   ar
    28     7     8    1
    29     8     4    1
    30    29    23   ar
    31    19    13   ar
    32    11    12    1
