@<TRIPOS>MOLECULE
*****
 22 24 0 0 0
SMALL
GASTEIGER

@<TRIPOS>ATOM
      1 C         139.8468  140.1392  167.3940 C.ar    1  UNL1        0.0261
      2 C         138.9869  140.0206  168.6173 C.ar    1  UNL1        0.0077
      3 C         139.3773  140.7297  169.8801 C.ar    1  UNL1        0.0202
      4 C         140.6276  141.5574  169.9196 C.ar    1  UNL1        0.0893
      5 N         141.2628  142.3647  171.0129 N.ar    1  UNL1       -0.2245
      6 C         142.5152  142.9822  170.4652 C.ar    1  UNL1        0.1567
      7 N         143.4625  143.8695  171.2171 N.pl3   1  UNL1       -0.3375
      8 S         142.6541  142.5566  169.0335 S.2     1  UNL1       -0.0520
      9 C         141.4875  141.6761  168.6964 C.ar    1  UNL1        0.0502
     10 C         141.0971  140.9670  167.4336 C.ar    1  UNL1        0.0142
     11 H         143.2846  144.0933  172.1592 H       1  UNL1        0.1442
     12 H         144.2622  144.2281  170.7685 H       1  UNL1        0.1442
     13 S         139.4564  139.4301  166.1311 S.3     1  UNL1       -0.1088
     14 C         138.4253  140.0303  165.2220 C.3     1  UNL1        0.0884
     15 C         139.2552  143.9364  163.1474 C.ar    1  UNL1        0.0684
     16 C         137.9266  143.7031  163.8035 C.ar    1  UNL1        0.0100
     17 C         137.6500  142.4011  164.4951 C.ar    1  UNL1       -0.0027
     18 C         138.7019  141.3324  164.5305 C.ar    1  UNL1       -0.0110
     19 C         140.0305  141.5657  163.8744 C.ar    1  UNL1       -0.0027
     20 C         140.3071  142.8677  163.1829 C.ar    1  UNL1        0.0100
     21 N         139.8083  146.5405  161.7644 N.1     1  UNL1       -0.1908
     22 C         139.5318  145.2385  162.4559 C.1     1  UNL1        0.1004
@<TRIPOS>BOND
     1    21    22    3
     2    22    15    1
     3    15    16   ar
     4    16    17   ar
     5    17    18   ar
     6    18    14    1
     7    14    13    1
     8    13     1    1
     9     1     2   ar
    10     2     3   ar
    11     3     4   ar
    12     4     5   ar
    13     5     6   ar
    14     6     7    1
    15     6     8   ar
    16     8     9   ar
    17     9    10   ar
    18    18    19   ar
    19    19    20   ar
    20    20    15   ar
    21    10     1   ar
    22     9     4   ar
    23     7    11    1
    24     7    12    1
@<TRIPOS>MOLECULE
*****
 22 24 0 0 0
SMALL
GASTEIGER

@<TRIPOS>ATOM
      1 C         139.9349  140.1747  167.3290 C.ar    1  UNL1        0.0261
      2 C         141.1844  140.1906  166.4993 C.ar    1  UNL1        0.0077
      3 C         142.3832  140.9633  166.9638 C.ar    1  UNL1        0.0202
      4 C         142.3325  141.7201  168.2579 C.ar    1  UNL1        0.0893
      5 N         143.3491  142.5649  168.9671 N.ar    1  UNL1       -0.2245
      6 C         142.7278  143.0711  170.2351 C.ar    1  UNL1        0.1567
      7 N         143.3907  143.9542  171.2504 N.pl3   1  UNL1       -0.3375
      8 S         141.3273  142.5391  170.3095 S.2     1  UNL1       -0.0520
      9 C         141.0829  141.7042  169.0876 C.ar    1  UNL1        0.0502
     10 C         139.8841  140.9315  168.6231 C.ar    1  UNL1        0.0142
     11 H         144.3184  144.2530  171.1120 H       1  UNL1        0.1442
     12 H         142.8979  144.2349  172.0552 H       1  UNL1        0.1442
     13 S         138.7360  139.4020  166.8646 S.3     1  UNL1       -0.1088
     14 C         138.8792  138.3756  165.7802 C.3     1  UNL1        0.0884
     15 C         138.0900  139.5038  161.4960 C.ar    1  UNL1        0.0684
     16 C         138.6168  138.1390  161.8273 C.ar    1  UNL1        0.0100
     17 C         138.8799  137.7629  163.2553 C.ar    1  UNL1       -0.0027
     18 C         138.6161  138.7517  164.3520 C.ar    1  UNL1       -0.0110
     19 C         138.0893  140.1165  164.0207 C.ar    1  UNL1       -0.0027
     20 C         137.8262  140.4925  162.5927 C.ar    1  UNL1        0.0100
     21 N         137.5639  140.2559  158.6398 N.1     1  UNL1       -0.1908
     22 C         137.8269  139.8799  160.0679 C.1     1  UNL1        0.1004
@<TRIPOS>BOND
     1    21    22    3
     2    22    15    1
     3    15    16   ar
     4    16    17   ar
     5    17    18   ar
     6    18    14    1
     7    14    13    1
     8    13     1    1
     9     1     2   ar
    10     2     3   ar
    11     3     4   ar
    12     4     5   ar
    13     5     6   ar
    14     6     7    1
    15     6     8   ar
    16     8     9   ar
    17     9    10   ar
    18    18    19   ar
    19    19    20   ar
    20    20    15   ar
    21    10     1   ar
    22     9     4   ar
    23     7    11    1
    24     7    12    1
@<TRIPOS>MOLECULE
*****
 22 24 0 0 0
SMALL
GASTEIGER

@<TRIPOS>ATOM
      1 C         138.5113  141.8202  163.4591 C.ar    1  UNL1        0.0261
      2 C         137.7611  143.0742  163.7976 C.ar    1  UNL1        0.0077
      3 C         138.1085  144.3635  163.1142 C.ar    1  UNL1        0.0202
      4 C         139.2060  144.3987  162.0923 C.ar    1  UNL1        0.0893
      5 N         139.7676  145.5136  161.2605 N.ar    1  UNL1       -0.2245
      6 C         140.8648  144.9485  160.4080 C.ar    1  UNL1        0.1567
      7 N         141.6991  145.7133  159.4235 N.pl3   1  UNL1       -0.3375
      8 S         140.9814  143.4845  160.7129 S.2     1  UNL1       -0.0520
      9 C         139.9562  143.1447  161.7539 C.ar    1  UNL1        0.0502
     10 C         139.6088  141.8554  162.4373 C.ar    1  UNL1        0.0142
     11 H         141.5464  146.6770  159.2927 H       1  UNL1        0.1442
     12 H         142.3992  145.2514  158.9080 H       1  UNL1        0.1442
     13 S         138.1640  140.5308  164.1426 S.3     1  UNL1       -0.1088
     14 C         139.1841  139.8346  164.9937 C.3     1  UNL1        0.0884
     15 C         140.0253  141.3126  169.1599 C.ar    1  UNL1        0.0684
     16 C         140.5161  142.0903  167.9749 C.ar    1  UNL1        0.0100
     17 C         140.2357  141.5976  166.5862 C.ar    1  UNL1       -0.0027
     18 C         139.4645  140.3273  166.3825 C.ar    1  UNL1       -0.0110
     19 C         138.9737  139.5496  167.5675 C.ar    1  UNL1       -0.0027
     20 C         139.2541  140.0423  168.9562 C.ar    1  UNL1        0.0100
     21 N         140.5861  142.2979  171.9375 N.1     1  UNL1       -0.1908
     22 C         140.3057  141.8053  170.5487 C.1     1  UNL1        0.1004
@<TRIPOS>BOND
     1    21    22    3
     2    22    15    1
     3    15    16   ar
     4    16    17   ar
     5    17    18   ar
     6    18    14    1
     7    14    13    1
     8    13     1    1
     9     1     2   ar
    10     2     3   ar
    11     3     4   ar
    12     4     5   ar
    13     5     6   ar
    14     6     7    1
    15     6     8   ar
    16     8     9   ar
    17     9    10   ar
    18    18    19   ar
    19    19    20   ar
    20    20    15   ar
    21    10     1   ar
    22     9     4   ar
    23     7    11    1
    24     7    12    1
@<TRIPOS>MOLECULE
*****
 22 24 0 0 0
SMALL
GASTEIGER

@<TRIPOS>ATOM
      1 C         139.1728  139.9570  162.5179 C.ar    1  UNL1        0.0261
      2 C         137.7573  140.3749  162.7858 C.ar    1  UNL1        0.0077
      3 C         137.4042  141.8314  162.8474 C.ar    1  UNL1        0.0202
      4 C         138.4666  142.8701  162.6411 C.ar    1  UNL1        0.0893
      5 N         138.4187  144.3693  162.6444 N.ar    1  UNL1       -0.2245
      6 C         139.8045  144.8780  162.3786 C.ar    1  UNL1        0.1567
      7 N         140.2141  146.3186  162.2951 N.pl3   1  UNL1       -0.3375
      8 S         140.7089  143.6931  162.2110 S.2     1  UNL1       -0.0520
      9 C         139.8821  142.4522  162.3732 C.ar    1  UNL1        0.0502
     10 C         140.2351  140.9956  162.3116 C.ar    1  UNL1        0.0142
     11 H         139.5439  147.0289  162.4199 H       1  UNL1        0.1442
     12 H         141.1530  146.5538  162.1154 H       1  UNL1        0.1442
     13 S         139.5259  138.5004  162.4562 S.3     1  UNL1       -0.1088
     14 C         139.8427  137.7515  163.7167 C.3     1  UNL1        0.0884
     15 C         139.4217  139.7855  167.7086 C.ar    1  UNL1        0.0684
     16 C         140.7069  139.8950  166.9429 C.ar    1  UNL1        0.0100
     17 C         140.8473  139.2170  165.6123 C.ar    1  UNL1       -0.0027
     18 C         139.7024  138.4296  165.0474 C.ar    1  UNL1       -0.0110
     19 C         138.4172  138.3201  165.8131 C.ar    1  UNL1       -0.0027
     20 C         138.2769  138.9981  167.1437 C.ar    1  UNL1        0.0100
     21 N         139.1411  141.1416  170.3699 N.1     1  UNL1       -0.1908
     22 C         139.2814  140.4635  169.0393 C.1     1  UNL1        0.1004
@<TRIPOS>BOND
     1    21    22    3
     2    22    15    1
     3    15    16   ar
     4    16    17   ar
     5    17    18   ar
     6    18    14    1
     7    14    13    1
     8    13     1    1
     9     1     2   ar
    10     2     3   ar
    11     3     4   ar
    12     4     5   ar
    13     5     6   ar
    14     6     7    1
    15     6     8   ar
    16     8     9   ar
    17     9    10   ar
    18    18    19   ar
    19    19    20   ar
    20    20    15   ar
    21    10     1   ar
    22     9     4   ar
    23     7    11    1
    24     7    12    1
@<TRIPOS>MOLECULE
*****
 22 24 0 0 0
SMALL
GASTEIGER

@<TRIPOS>ATOM
      1 C         142.8859  140.8149  164.3709 C.ar    1  UNL1        0.0261
      2 C         143.9893  141.6898  164.8875 C.ar    1  UNL1        0.0077
      3 C         143.9130  143.1771  164.7091 C.ar    1  UNL1        0.0202
      4 C         142.7332  143.7896  164.0141 C.ar    1  UNL1        0.0893
      5 N         142.3845  145.2131  163.6942 N.ar    1  UNL1       -0.2245
      6 C         141.0655  145.2178  162.9799 C.ar    1  UNL1        0.1567
      7 N         140.3402  146.4302  162.4757 N.pl3   1  UNL1       -0.3375
      8 S         140.5990  143.7974  162.8584 S.2     1  UNL1       -0.0520
      9 C         141.6297  142.9147  163.4975 C.ar    1  UNL1        0.0502
     10 C         141.7061  141.4273  163.6759 C.ar    1  UNL1        0.0142
     11 H         140.7294  147.3254  162.6039 H       1  UNL1        0.1442
     12 H         139.4750  146.3308  162.0166 H       1  UNL1        0.1442
     13 S         142.9622  139.3274  164.5492 S.3     1  UNL1       -0.1088
     14 C         142.0957  138.6488  165.5684 C.3     1  UNL1        0.0884
     15 C         141.0840  140.7484  169.4178 C.ar    1  UNL1        0.0684
     16 C         142.4517  140.1658  169.2183 C.ar    1  UNL1        0.0100
     17 C         142.7890  139.4659  167.9352 C.ar    1  UNL1       -0.0027
     18 C         141.7585  139.3487  166.8516 C.ar    1  UNL1       -0.0110
     19 C         140.3907  139.9314  167.0511 C.ar    1  UNL1       -0.0027
     20 C         140.0535  140.6312  168.3342 C.ar    1  UNL1        0.0100
     21 N         140.4095  142.1481  171.9841 N.1     1  UNL1       -0.1908
     22 C         140.7468  141.4483  170.7010 C.1     1  UNL1        0.1004
@<TRIPOS>BOND
     1    21    22    3
     2    22    15    1
     3    15    16   ar
     4    16    17   ar
     5    17    18   ar
     6    18    14    1
     7    14    13    1
     8    13     1    1
     9     1     2   ar
    10     2     3   ar
    11     3     4   ar
    12     4     5   ar
    13     5     6   ar
    14     6     7    1
    15     6     8   ar
    16     8     9   ar
    17     9    10   ar
    18    18    19   ar
    19    19    20   ar
    20    20    15   ar
    21    10     1   ar
    22     9     4   ar
    23     7    11    1
    24     7    12    1
@<TRIPOS>MOLECULE
*****
 22 24 0 0 0
SMALL
GASTEIGER

@<TRIPOS>ATOM
      1 C         143.2124  140.1992  164.5064 C.ar    1  UNL1        0.0261
      2 C         144.6155  140.7185  164.3985 C.ar    1  UNL1        0.0077
      3 C         144.8945  141.9682  163.6171 C.ar    1  UNL1        0.0202
      4 C         143.7706  142.6984  162.9437 C.ar    1  UNL1        0.0893
      5 N         143.7403  143.9461  162.1116 N.ar    1  UNL1       -0.2245
      6 C         142.3185  144.1978  161.7052 C.ar    1  UNL1        0.1567
      7 N         141.8306  145.3409  160.8653 N.pl3   1  UNL1       -0.3375
      8 S         141.4701  143.1057  162.2863 S.2     1  UNL1       -0.0520
      9 C         142.3675  142.1790  163.0517 C.ar    1  UNL1        0.0502
     10 C         142.0885  140.9294  163.8330 C.ar    1  UNL1        0.0142
     11 H         142.4681  146.0113  160.5283 H       1  UNL1        0.1442
     12 H         140.8731  145.4208  160.6511 H       1  UNL1        0.1442
     13 S         142.9333  138.9495  165.2878 S.3     1  UNL1       -0.1088
     14 C         142.9230  138.9890  166.7872 C.3     1  UNL1        0.0884
     15 C         141.0870  142.4925  168.9331 C.ar    1  UNL1        0.0684
     16 C         140.2126  141.3926  168.4078 C.ar    1  UNL1        0.0100
     17 C         140.8246  140.2248  167.6925 C.ar    1  UNL1       -0.0027
     18 C         142.3110  140.1569  167.5025 C.ar    1  UNL1       -0.0110
     19 C         143.1853  141.2567  168.0278 C.ar    1  UNL1       -0.0027
     20 C         142.5733  142.4245  168.7431 C.ar    1  UNL1        0.0100
     21 N         139.8629  144.8281  170.3637 N.1     1  UNL1       -0.1908
     22 C         140.4749  143.6603  169.6484 C.1     1  UNL1        0.1004
@<TRIPOS>BOND
     1    21    22    3
     2    22    15    1
     3    15    16   ar
     4    16    17   ar
     5    17    18   ar
     6    18    14    1
     7    14    13    1
     8    13     1    1
     9     1     2   ar
    10     2     3   ar
    11     3     4   ar
    12     4     5   ar
    13     5     6   ar
    14     6     7    1
    15     6     8   ar
    16     8     9   ar
    17     9    10   ar
    18    18    19   ar
    19    19    20   ar
    20    20    15   ar
    21    10     1   ar
    22     9     4   ar
    23     7    11    1
    24     7    12    1
@<TRIPOS>MOLECULE
*****
 22 24 0 0 0
SMALL
GASTEIGER

@<TRIPOS>ATOM
      1 C         139.0689  139.8619  166.8638 C.ar    1  UNL1        0.0261
      2 C         139.7906  140.8541  166.0007 C.ar    1  UNL1        0.0077
      3 C         140.7536  141.8244  166.6180 C.ar    1  UNL1        0.0202
      4 C         140.9949  141.8026  168.0983 C.ar    1  UNL1        0.0893
      5 N         141.8793  142.6300  168.9834 N.ar    1  UNL1       -0.2245
      6 C         141.7041  142.1492  170.3934 C.ar    1  UNL1        0.1567
      7 N         142.3995  142.6969  171.6045 N.pl3   1  UNL1       -0.3375
      8 S         140.7116  141.0247  170.3798 S.2     1  UNL1       -0.0520
      9 C         140.2733  140.8104  168.9613 C.ar    1  UNL1        0.0502
     10 C         139.3103  139.8401  168.3440 C.ar    1  UNL1        0.0142
     11 H         143.0379  143.4405  171.5114 H       1  UNL1        0.1442
     12 H         142.2174  142.3126  172.4925 H       1  UNL1        0.1442
     13 S         138.1059  138.8916  166.2465 S.3     1  UNL1       -0.1088
     14 C         138.6142  137.6301  165.6139 C.3     1  UNL1        0.0884
     15 C         141.3661  137.8458  162.0599 C.ar    1  UNL1        0.0684
     16 C         141.9341  137.6986  163.4404 C.ar    1  UNL1        0.0100
     17 C         141.0168  137.6267  164.6251 C.ar    1  UNL1       -0.0027
     18 C         139.5316  137.7020  164.4292 C.ar    1  UNL1       -0.0110
     19 C         138.9636  137.8492  163.0487 C.ar    1  UNL1       -0.0027
     20 C         139.8809  137.9210  161.8641 C.ar    1  UNL1        0.0100
     21 N         143.2008  137.9895  159.6907 N.1     1  UNL1       -0.1908
     22 C         142.2835  137.9177  160.8753 C.1     1  UNL1        0.1004
@<TRIPOS>BOND
     1    21    22    3
     2    22    15    1
     3    15    16   ar
     4    16    17   ar
     5    17    18   ar
     6    18    14    1
     7    14    13    1
     8    13     1    1
     9     1     2   ar
    10     2     3   ar
    11     3     4   ar
    12     4     5   ar
    13     5     6   ar
    14     6     7    1
    15     6     8   ar
    16     8     9   ar
    17     9    10   ar
    18    18    19   ar
    19    19    20   ar
    20    20    15   ar
    21    10     1   ar
    22     9     4   ar
    23     7    11    1
    24     7    12    1
@<TRIPOS>MOLECULE
*****
 22 24 0 0 0
SMALL
GASTEIGER

@<TRIPOS>ATOM
      1 C         140.4592  140.2656  166.4525 C.ar    1  UNL1        0.0261
      2 C         141.8522  140.2867  165.8966 C.ar    1  UNL1        0.0077
      3 C         142.9402  141.0163  166.6273 C.ar    1  UNL1        0.0202
      4 C         142.6352  141.7248  167.9138 C.ar    1  UNL1        0.0893
      5 N         143.4957  142.5210  168.8496 N.ar    1  UNL1       -0.2245
      6 C         142.6344  142.9920  169.9838 C.ar    1  UNL1        0.1567
      7 N         143.0864  143.8223  171.1484 N.pl3   1  UNL1       -0.3375
      8 S         141.2416  142.4868  169.7489 S.2     1  UNL1       -0.0520
      9 C         141.2421  141.7037  168.4696 C.ar    1  UNL1        0.0502
     10 C         140.1542  140.9741  167.7389 C.ar    1  UNL1        0.0142
     11 H         144.0266  144.1068  171.2147 H       1  UNL1        0.1442
     12 H         142.4429  144.0827  171.8465 H       1  UNL1        0.1442
     13 S         139.3711  139.5360  165.7218 S.3     1  UNL1       -0.1088
     14 C         138.2279  140.2996  165.1219 C.3     1  UNL1        0.0884
     15 C         139.0076  144.1146  162.8663 C.ar    1  UNL1        0.0684
     16 C         139.7784  142.8728  162.5287 C.ar    1  UNL1        0.0100
     17 C         139.5185  141.6012  163.2806 C.ar    1  UNL1       -0.0027
     18 C         138.4879  141.5713  164.3700 C.ar    1  UNL1       -0.0110
     19 C         137.7171  142.8131  164.7075 C.ar    1  UNL1       -0.0027
     20 C         137.9770  144.0847  163.9557 C.ar    1  UNL1        0.0100
     21 N         139.5274  146.6579  161.3625 N.1     1  UNL1       -0.1908
     22 C         139.2676  145.3863  162.1144 C.1     1  UNL1        0.1004
@<TRIPOS>BOND
     1    21    22    3
     2    22    15    1
     3    15    16   ar
     4    16    17   ar
     5    17    18   ar
     6    18    14    1
     7    14    13    1
     8    13     1    1
     9     1     2   ar
    10     2     3   ar
    11     3     4   ar
    12     4     5   ar
    13     5     6   ar
    14     6     7    1
    15     6     8   ar
    16     8     9   ar
    17     9    10   ar
    18    18    19   ar
    19    19    20   ar
    20    20    15   ar
    21    10     1   ar
    22     9     4   ar
    23     7    11    1
    24     7    12    1
@<TRIPOS>MOLECULE
*****
 22 24 0 0 0
SMALL
GASTEIGER

@<TRIPOS>ATOM
      1 C         139.5224  140.6155  163.8480 C.ar    1  UNL1        0.0261
      2 C         138.0789  140.8776  164.1600 C.ar    1  UNL1        0.0077
      3 C         137.4591  142.1932  163.7925 C.ar    1  UNL1        0.0202
      4 C         138.2828  143.2466  163.1129 C.ar    1  UNL1        0.0893
      5 N         137.9487  144.6284  162.6344 N.ar    1  UNL1       -0.2245
      6 C         139.1858  145.2202  162.0266 C.ar    1  UNL1        0.1567
      7 N         139.3036  146.5880  161.4221 N.pl3   1  UNL1       -0.3375
      8 S         140.2844  144.2042  162.1296 S.2     1  UNL1       -0.0520
      9 C         139.7264  142.9844  162.8009 C.ar    1  UNL1        0.0502
     10 C         140.3462  141.6689  163.1685 C.ar    1  UNL1        0.0142
     11 H         138.5217  147.1859  161.4010 H       1  UNL1        0.1442
     12 H         140.1627  146.8878  161.0463 H       1  UNL1        0.1442
     13 S         140.1423  139.2998  164.2156 S.3     1  UNL1       -0.1088
     14 C         141.2849  139.2543  165.1862 C.3     1  UNL1        0.0884
     15 C         140.8036  140.9869  169.3113 C.ar    1  UNL1        0.0684
     16 C         139.6608  140.2621  168.6642 C.ar    1  UNL1        0.0100
     17 C         139.8212  139.6846  167.2892 C.ar    1  UNL1       -0.0027
     18 C         141.1244  139.8318  166.5613 C.ar    1  UNL1       -0.0110
     19 C         142.2672  140.5566  167.2084 C.ar    1  UNL1       -0.0027
     20 C         142.1068  141.1341  168.5834 C.ar    1  UNL1        0.0100
     21 N         140.4825  142.1420  172.0614 N.1     1  UNL1       -0.1908
     22 C         140.6431  141.5645  170.6864 C.1     1  UNL1        0.1004
@<TRIPOS>BOND
     1    21    22    3
     2    22    15    1
     3    15    16   ar
     4    16    17   ar
     5    17    18   ar
     6    18    14    1
     7    14    13    1
     8    13     1    1
     9     1     2   ar
    10     2     3   ar
    11     3     4   ar
    12     4     5   ar
    13     5     6   ar
    14     6     7    1
    15     6     8   ar
    16     8     9   ar
    17     9    10   ar
    18    18    19   ar
    19    19    20   ar
    20    20    15   ar
    21    10     1   ar
    22     9     4   ar
    23     7    11    1
    24     7    12    1
