@<TRIPOS>MOLECULE
*****
 30 34 0 0 0
SMALL
GASTEIGER

@<TRIPOS>ATOM
      1 C         142.6477  138.9672  166.0860 C.3     1  UNL1        0.0545
      2 C         142.8704  139.3640  167.5153 C.3     1  UNL1        0.0162
      3 C         141.5436  139.7430  168.1032 C.3     1  UNL1        0.0095
      4 C         140.8611  140.2225  169.3499 C.3     1  UNL1        0.0005
      5 C         139.3966  140.3564  169.0545 C.3     1  UNL1        0.0005
      6 C         139.1740  139.9596  167.6252 C.3     1  UNL1        0.0087
      7 C         140.5008  139.5805  167.0372 C.3     1  UNL1        0.0704
      8 C         141.1832  139.1010  165.7906 C.3     1  UNL1        0.0243
      9 C         139.4581  139.4180  165.9712 C.2     1  UNL1        0.2250
     10 O         138.7024  138.1278  165.8518 O.2     1  UNL1       -0.2749
     11 N         139.1710  140.5457  165.0247 N.am    1  UNL1       -0.2750
     12 C         138.1283  140.3832  163.9588 C.3     1  UNL1        0.1000
     13 C         137.8412  141.5109  163.0123 C.3     1  UNL1        0.0670
     14 C         138.5969  142.8012  163.1317 C.ar    1  UNL1        0.0583
     15 N         138.3098  143.9289  162.1853 N.ar    1  UNL1       -0.2484
     16 C         139.0654  145.2191  162.3047 C.ar    1  UNL1        0.0984
     17 C         140.1081  145.3816  163.3707 C.ar    1  UNL1        0.0204
     18 C         140.3952  144.2539  164.3172 C.ar    1  UNL1        0.0002
     19 C         139.6396  142.9637  164.1977 C.ar    1  UNL1        0.0113
     20 C         139.9267  141.8359  165.1442 C.3     1  UNL1        0.1213
     21 N         143.7041  138.5158  165.1214 N.3     1  UNL1       -0.2975
     22 H         144.5331  138.2967  165.6739 H       1  UNL1        0.1232
     23 C         143.7890  139.1120  162.5941 C.3     1  UNL1        0.1591
     24 C         144.2339  140.0231  161.4886 C.3     1  UNL1        0.1729
     25 O         145.0386  141.2488  161.8049 O.3     1  UNL1       -0.3511
     26 C         145.3985  141.5635  163.2266 C.3     1  UNL1        0.1437
     27 C         144.9537  140.6525  164.3321 C.3     1  UNL1        0.0503
     28 C         144.1489  139.4267  164.0159 C.3     1  UNL1        0.0865
     29 C         141.4863  137.9592  162.2500 C.3     1  UNL1        0.1742
     30 O         142.9843  137.8863  162.2779 O.3     1  UNL1       -0.3496
@<TRIPOS>BOND
     1    29    30    1
     2    30    23    1
     3    23    24    1
     4    24    25    1
     5    25    26    1
     6    26    27    1
     7    27    28    1
     8    28    21    1
     9     1    21    1
    10     1     2    1
    11     3     2    1
    12     3     4    1
    13     4     5    1
    14     5     6    1
    15     6     7    1
    16     7     9    1
    17     9    10    2
    18     9    11   am
    19    11    12    1
    20    12    13    1
    21    13    14    1
    22    14    15   ar
    23    15    16   ar
    24    16    17   ar
    25    17    18   ar
    26    18    19   ar
    27    19    20    1
    28     7     8    1
    29    28    23    1
    30     8     1    1
    31     7     3    1
    32    20    11    1
    33    19    14   ar
    34    21    22    1
@<TRIPOS>MOLECULE
*****
 30 34 0 0 0
SMALL
GASTEIGER

@<TRIPOS>ATOM
      1 C         139.4691  139.3616  166.2125 C.3     1  UNL1        0.0545
      2 C         139.1187  139.7727  167.6118 C.3     1  UNL1        0.0162
      3 C         140.3956  139.9230  168.3842 C.3     1  UNL1        0.0095
      4 C         140.9683  140.2700  169.7265 C.3     1  UNL1        0.0005
      5 C         142.4619  140.1663  169.6341 C.3     1  UNL1        0.0005
      6 C         142.8122  139.7552  168.2347 C.3     1  UNL1        0.0087
      7 C         141.5352  139.6048  167.4623 C.3     1  UNL1        0.0704
      8 C         140.9626  139.2579  166.1201 C.3     1  UNL1        0.0243
      9 C         142.6749  139.2866  166.5403 C.2     1  UNL1        0.2250
     10 O         143.3193  137.9329  166.5839 O.2     1  UNL1       -0.2749
     11 N         143.1700  140.3223  165.5747 N.am    1  UNL1       -0.2750
     12 C         144.3096  140.0041  164.6527 C.3     1  UNL1        0.1000
     13 C         144.8048  141.0396  163.6871 C.3     1  UNL1        0.0670
     14 C         144.1603  142.3935  163.6435 C.ar    1  UNL1        0.0583
     15 N         144.6554  143.4291  162.6779 N.ar    1  UNL1       -0.2484
     16 C         144.0110  144.7828  162.6343 C.ar    1  UNL1        0.0984
     17 C         142.8713  145.1010  163.5562 C.ar    1  UNL1        0.0204
     18 C         142.3762  144.0654  164.5218 C.ar    1  UNL1        0.0002
     19 C         143.0207  142.7117  164.5654 C.ar    1  UNL1        0.0113
     20 C         142.5255  141.6760  165.5311 C.3     1  UNL1        0.1213
     21 N         138.4966  139.1001  165.1007 N.3     1  UNL1       -0.2975
     22 H         138.8645  138.3127  164.5669 H       1  UNL1        0.1232
     23 C         138.0072  139.8460  162.6606 C.3     1  UNL1        0.1591
     24 C         137.6894  140.9286  161.6721 C.3     1  UNL1        0.1729
     25 O         137.5431  142.3477  162.1353 O.3     1  UNL1       -0.3511
     26 C         137.7146  142.6844  163.5869 C.3     1  UNL1        0.1437
     27 C         138.0324  141.6019  164.5754 C.3     1  UNL1        0.0503
     28 C         138.1788  140.1826  164.1122 C.3     1  UNL1        0.0865
     29 C         139.3976  137.9972  161.4779 C.3     1  UNL1        0.1742
     30 O         138.1536  138.4268  162.1974 O.3     1  UNL1       -0.3496
@<TRIPOS>BOND
     1    29    30    1
     2    30    23    1
     3    23    24    1
     4    24    25    1
     5    25    26    1
     6    26    27    1
     7    27    28    1
     8    28    21    1
     9     1    21    1
    10     1     2    1
    11     3     2    1
    12     3     4    1
    13     4     5    1
    14     5     6    1
    15     6     7    1
    16     7     9    1
    17     9    10    2
    18     9    11   am
    19    11    12    1
    20    12    13    1
    21    13    14    1
    22    14    15   ar
    23    15    16   ar
    24    16    17   ar
    25    17    18   ar
    26    18    19   ar
    27    19    20    1
    28     7     8    1
    29    28    23    1
    30     8     1    1
    31     7     3    1
    32    20    11    1
    33    19    14   ar
    34    21    22    1
@<TRIPOS>MOLECULE
*****
 30 34 0 0 0
SMALL
GASTEIGER

@<TRIPOS>ATOM
      1 C         141.8851  140.5554  166.6976 C.3     1  UNL1        0.0545
      2 C         142.5823  139.3306  166.1837 C.3     1  UNL1        0.0162
      3 C         141.6424  138.6162  165.2586 C.3     1  UNL1        0.0095
      4 C         141.4924  137.4177  164.3691 C.3     1  UNL1        0.0005
      5 C         140.1216  137.4600  163.7615 C.3     1  UNL1        0.0005
      6 C         139.4245  138.6848  164.2753 C.3     1  UNL1        0.0087
      7 C         140.3644  139.3993  165.2006 C.3     1  UNL1        0.0704
      8 C         140.5144  140.5977  166.0900 C.3     1  UNL1        0.0243
      9 C         139.0864  140.1824  165.1426 C.2     1  UNL1        0.2250
     10 O         137.8729  139.6930  165.8761 O.2     1  UNL1       -0.2749
     11 N         139.0218  141.4550  164.3511 N.am    1  UNL1       -0.2750
     12 C         137.7438  142.2381  164.2931 C.3     1  UNL1        0.1000
     13 C         137.6791  143.5107  163.5017 C.3     1  UNL1        0.0670
     14 C         138.8926  144.0001  162.7681 C.ar    1  UNL1        0.0583
     15 N         138.8280  145.2727  161.9767 N.ar    1  UNL1       -0.2484
     16 C         140.0414  145.7621  161.2432 C.ar    1  UNL1        0.0984
     17 C         141.3194  144.9789  161.3012 C.ar    1  UNL1        0.0204
     18 C         141.3840  143.7064  162.0926 C.ar    1  UNL1        0.0002
     19 C         140.1706  143.2170  162.8261 C.ar    1  UNL1        0.0113
     20 C         140.2352  141.9444  163.6176 C.3     1  UNL1        0.1213
     21 N         142.4581  141.5611  167.6516 N.3     1  UNL1       -0.2975
     22 H         143.3977  141.2415  167.8872 H       1  UNL1        0.1232
     23 C         142.0999  141.0523  170.1741 C.3     1  UNL1        0.1591
     24 C         141.4021  141.3385  171.4707 C.3     1  UNL1        0.1729
     25 O         140.3648  142.4197  171.5415 O.3     1  UNL1       -0.3511
     26 C         140.0253  143.2148  170.3156 C.3     1  UNL1        0.1437
     27 C         140.7231  142.9286  169.0190 C.3     1  UNL1        0.0503
     28 C         141.7604  141.8473  168.9482 C.3     1  UNL1        0.0865
     29 C         142.7174  138.5342  170.0063 C.3     1  UNL1        0.1742
     30 O         143.1371  139.9710  170.1033 O.3     1  UNL1       -0.3496
@<TRIPOS>BOND
     1    29    30    1
     2    30    23    1
     3    23    24    1
     4    24    25    1
     5    25    26    1
     6    26    27    1
     7    27    28    1
     8    28    21    1
     9     1    21    1
    10     1     2    1
    11     3     2    1
    12     3     4    1
    13     4     5    1
    14     5     6    1
    15     6     7    1
    16     7     9    1
    17     9    10    2
    18     9    11   am
    19    11    12    1
    20    12    13    1
    21    13    14    1
    22    14    15   ar
    23    15    16   ar
    24    16    17   ar
    25    17    18   ar
    26    18    19   ar
    27    19    20    1
    28     7     8    1
    29    28    23    1
    30     8     1    1
    31     7     3    1
    32    20    11    1
    33    19    14   ar
    34    21    22    1
@<TRIPOS>MOLECULE
*****
 30 34 0 0 0
SMALL
GASTEIGER

@<TRIPOS>ATOM
      1 C         139.1843  138.2477  164.8271 C.3     1  UNL1        0.0545
      2 C         138.3297  138.6909  165.9774 C.3     1  UNL1        0.0162
      3 C         139.2237  139.3237  167.0022 C.3     1  UNL1        0.0095
      4 C         139.2481  139.9888  168.3464 C.3     1  UNL1        0.0005
      5 C         140.6703  140.3478  168.6604 C.3     1  UNL1        0.0005
      6 C         141.5249  139.9045  167.5101 C.3     1  UNL1        0.0087
      7 C         140.6309  139.2716  166.4852 C.3     1  UNL1        0.0704
      8 C         140.6065  138.6066  165.1410 C.3     1  UNL1        0.0243
      9 C         142.0380  139.2195  165.9683 C.2     1  UNL1        0.2250
     10 O         142.8497  137.9682  166.1277 O.2     1  UNL1       -0.2749
     11 N         142.6335  140.4187  165.2920 N.am    1  UNL1       -0.2750
     12 C         144.0406  140.3666  164.7751 C.3     1  UNL1        0.1000
     13 C         144.6361  141.5657  164.0987 C.3     1  UNL1        0.0670
     14 C         143.8244  142.8171  163.9393 C.ar    1  UNL1        0.0583
     15 N         144.4198  144.0162  163.2630 N.ar    1  UNL1       -0.2484
     16 C         143.6081  145.2675  163.1036 C.ar    1  UNL1        0.0984
     17 C         142.2010  145.3196  163.6205 C.ar    1  UNL1        0.0204
     18 C         141.6055  144.1205  164.2969 C.ar    1  UNL1        0.0002
     19 C         142.4172  142.8692  164.4562 C.ar    1  UNL1        0.0113
     20 C         141.8218  141.6700  165.1326 C.3     1  UNL1        0.1213
     21 N         138.7015  137.5653  163.5816 N.3     1  UNL1       -0.2975
     22 H         139.2244  136.6931  163.5022 H       1  UNL1        0.1232
     23 C         140.0686  138.1345  161.4469 C.3     1  UNL1        0.1591
     24 C         140.1787  138.8276  160.1212 C.3     1  UNL1        0.1729
     25 O         139.0317  139.6447  159.6046 O.3     1  UNL1       -0.3511
     26 C         137.7747  139.7686  160.4136 C.3     1  UNL1        0.1437
     27 C         137.6646  139.0755  161.7393 C.3     1  UNL1        0.0503
     28 C         138.8116  138.2584  162.2560 C.3     1  UNL1        0.0865
     29 C         142.5673  137.9452  162.1331 C.3     1  UNL1        0.1742
     30 O         141.2155  137.3174  161.9635 O.3     1  UNL1       -0.3496
@<TRIPOS>BOND
     1    29    30    1
     2    30    23    1
     3    23    24    1
     4    24    25    1
     5    25    26    1
     6    26    27    1
     7    27    28    1
     8    28    21    1
     9     1    21    1
    10     1     2    1
    11     3     2    1
    12     3     4    1
    13     4     5    1
    14     5     6    1
    15     6     7    1
    16     7     9    1
    17     9    10    2
    18     9    11   am
    19    11    12    1
    20    12    13    1
    21    13    14    1
    22    14    15   ar
    23    15    16   ar
    24    16    17   ar
    25    17    18   ar
    26    18    19   ar
    27    19    20    1
    28     7     8    1
    29    28    23    1
    30     8     1    1
    31     7     3    1
    32    20    11    1
    33    19    14   ar
    34    21    22    1
@<TRIPOS>MOLECULE
*****
 30 34 0 0 0
SMALL
GASTEIGER

@<TRIPOS>ATOM
      1 C         141.8230  138.1682  164.6407 C.3     1  UNL1        0.0545
      2 C         142.7493  138.3924  165.7991 C.3     1  UNL1        0.0162
      3 C         142.0548  139.2883  166.7813 C.3     1  UNL1        0.0095
      4 C         142.1980  139.9806  168.1042 C.3     1  UNL1        0.0005
      5 C         140.9310  140.7381  168.3706 C.3     1  UNL1        0.0005
      6 C         140.0047  140.5139  167.2123 C.3     1  UNL1        0.0087
      7 C         140.6992  139.6179  166.2300 C.3     1  UNL1        0.0704
      8 C         140.5560  138.9256  164.9071 C.3     1  UNL1        0.0243
      9 C         139.3437  139.9475  165.6787 C.2     1  UNL1        0.2250
     10 O         138.1835  139.0350  165.9454 O.2     1  UNL1       -0.2749
     11 N         139.1485  141.1897  164.8607 N.am    1  UNL1       -0.2750
     12 C         137.7929  141.5193  164.3095 C.3     1  UNL1        0.1000
     13 C         137.5977  142.7613  163.4915 C.3     1  UNL1        0.0670
     14 C         138.7580  143.6739  163.2248 C.ar    1  UNL1        0.0583
     15 N         138.5627  144.9159  162.4069 N.ar    1  UNL1       -0.2484
     16 C         139.7229  145.8284  162.1402 C.ar    1  UNL1        0.0984
     17 C         141.0785  145.4988  162.6915 C.ar    1  UNL1        0.0204
     18 C         141.2737  144.2567  163.5094 C.ar    1  UNL1        0.0002
     19 C         140.1135  143.3443  163.7761 C.ar    1  UNL1        0.0113
     20 C         140.3087  142.1021  164.5941 C.3     1  UNL1        0.1213
     21 N         142.1128  137.3332  163.4288 N.3     1  UNL1       -0.2975
     22 H         142.9828  136.8346  163.6159 H       1  UNL1        0.1232
     23 C         141.0758  138.1555  161.1931 C.3     1  UNL1        0.1591
     24 C         141.2311  138.8088  159.8518 C.3     1  UNL1        0.1729
     25 O         142.5786  139.2931  159.4049 O.3     1  UNL1       -0.3511
     26 C         143.7708  139.1241  160.2993 C.3     1  UNL1        0.1437
     27 C         143.6156  138.4708  161.6406 C.3     1  UNL1        0.0503
     28 C         142.2681  137.9865  162.0875 C.3     1  UNL1        0.0865
     29 C         138.5859  138.6360  161.7583 C.3     1  UNL1        0.1742
     30 O         139.7283  137.6712  161.6400 O.3     1  UNL1       -0.3496
@<TRIPOS>BOND
     1    29    30    1
     2    30    23    1
     3    23    24    1
     4    24    25    1
     5    25    26    1
     6    26    27    1
     7    27    28    1
     8    28    21    1
     9     1    21    1
    10     1     2    1
    11     3     2    1
    12     3     4    1
    13     4     5    1
    14     5     6    1
    15     6     7    1
    16     7     9    1
    17     9    10    2
    18     9    11   am
    19    11    12    1
    20    12    13    1
    21    13    14    1
    22    14    15   ar
    23    15    16   ar
    24    16    17   ar
    25    17    18   ar
    26    18    19   ar
    27    19    20    1
    28     7     8    1
    29    28    23    1
    30     8     1    1
    31     7     3    1
    32    20    11    1
    33    19    14   ar
    34    21    22    1
@<TRIPOS>MOLECULE
*****
 30 34 0 0 0
SMALL
GASTEIGER

@<TRIPOS>ATOM
      1 C         142.4962  138.9377  166.1969 C.3     1  UNL1        0.0545
      2 C         142.8010  139.3448  167.6081 C.3     1  UNL1        0.0162
      3 C         141.5215  139.7980  168.2463 C.3     1  UNL1        0.0095
      4 C         140.9191  140.3298  169.5129 C.3     1  UNL1        0.0005
      5 C         139.4512  140.5315  169.2791 C.3     1  UNL1        0.0005
      6 C         139.1465  140.1244  167.8679 C.3     1  UNL1        0.0087
      7 C         140.4260  139.6711  167.2296 C.3     1  UNL1        0.0704
      8 C         141.0284  139.1394  165.9631 C.3     1  UNL1        0.0243
      9 C         139.3304  139.5441  166.2129 C.2     1  UNL1        0.2250
     10 O         138.4841  138.3064  166.1729 O.2     1  UNL1       -0.2749
     11 N         139.0813  140.6550  165.2362 N.am    1  UNL1       -0.2750
     12 C         137.9857  140.5280  164.2195 C.3     1  UNL1        0.1000
     13 C         137.7365  141.6388  163.2428 C.3     1  UNL1        0.0670
     14 C         138.5829  142.8767  163.2828 C.ar    1  UNL1        0.0583
     15 N         138.3337  143.9875  162.3061 N.ar    1  UNL1       -0.2484
     16 C         139.1800  145.2252  162.3461 C.ar    1  UNL1        0.0984
     17 C         140.2755  145.3522  163.3628 C.ar    1  UNL1        0.0204
     18 C         140.5247  144.2414  164.3395 C.ar    1  UNL1        0.0002
     19 C         139.6784  143.0036  164.2995 C.ar    1  UNL1        0.0113
     20 C         139.9276  141.8927  165.2762 C.3     1  UNL1        0.1213
     21 N         143.4856  138.4198  165.1955 N.3     1  UNL1       -0.2975
     22 H         144.3987  138.7835  165.4685 H       1  UNL1        0.1232
     23 C         144.2132  139.7321  163.0745 C.3     1  UNL1        0.1591
     24 C         144.0400  140.0456  161.6178 C.3     1  UNL1        0.1729
     25 O         142.9662  139.3605  160.8257 O.3     1  UNL1       -0.3511
     26 C         142.0655  138.3619  161.4901 C.3     1  UNL1        0.1437
     27 C         142.2387  138.0483  162.9467 C.3     1  UNL1        0.0503
     28 C         143.3125  138.7334  163.7389 C.3     1  UNL1        0.0865
     29 C         145.7690  141.7773  163.4571 C.3     1  UNL1        0.1742
     30 O         145.2870  140.4172  163.8666 O.3     1  UNL1       -0.3496
@<TRIPOS>BOND
     1    29    30    1
     2    30    23    1
     3    23    24    1
     4    24    25    1
     5    25    26    1
     6    26    27    1
     7    27    28    1
     8    28    21    1
     9     1    21    1
    10     1     2    1
    11     3     2    1
    12     3     4    1
    13     4     5    1
    14     5     6    1
    15     6     7    1
    16     7     9    1
    17     9    10    2
    18     9    11   am
    19    11    12    1
    20    12    13    1
    21    13    14    1
    22    14    15   ar
    23    15    16   ar
    24    16    17   ar
    25    17    18   ar
    26    18    19   ar
    27    19    20    1
    28     7     8    1
    29    28    23    1
    30     8     1    1
    31     7     3    1
    32    20    11    1
    33    19    14   ar
    34    21    22    1
@<TRIPOS>MOLECULE
*****
 30 34 0 0 0
SMALL
GASTEIGER

@<TRIPOS>ATOM
      1 C         140.5204  137.6019  163.7722 C.3     1  UNL1        0.0545
      2 C         139.1586  137.2729  164.3081 C.3     1  UNL1        0.0162
      3 C         138.9190  138.1245  165.5194 C.3     1  UNL1        0.0095
      4 C         137.9292  138.4475  166.5992 C.3     1  UNL1        0.0005
      5 C         138.5312  139.5025  167.4794 C.3     1  UNL1        0.0005
      6 C         139.8931  139.8314  166.9435 C.3     1  UNL1        0.0087
      7 C         140.1327  138.9798  165.7321 C.3     1  UNL1        0.0704
      8 C         141.1224  138.6568  164.6524 C.3     1  UNL1        0.0243
      9 C         141.3465  139.8351  165.9449 C.2     1  UNL1        0.2250
     10 O         142.4750  139.3368  166.7981 O.2     1  UNL1       -0.2749
     11 N         141.4316  141.1889  165.3043 N.am    1  UNL1       -0.2750
     12 C         142.6454  142.0442  165.5171 C.3     1  UNL1        0.1000
     13 C         142.7306  143.3979  164.8766 C.3     1  UNL1        0.0670
     14 C         141.6021  143.8963  164.0233 C.ar    1  UNL1        0.0583
     15 N         141.6873  145.2499  163.3828 N.ar    1  UNL1       -0.2484
     16 C         140.5588  145.7483  162.5296 C.ar    1  UNL1        0.0984
     17 C         139.3450  144.8930  162.3168 C.ar    1  UNL1        0.0204
     18 C         139.2598  143.5393  162.9573 C.ar    1  UNL1        0.0002
     19 C         140.3883  143.0410  163.8105 C.ar    1  UNL1        0.0113
     20 C         140.3031  141.6872  164.4511 C.3     1  UNL1        0.1213
     21 N         141.1668  136.9843  162.5677 N.3     1  UNL1       -0.2975
     22 H         141.8406  136.3008  162.9130 H       1  UNL1        0.1232
     23 C         141.1415  138.5045  160.4610 C.3     1  UNL1        0.1591
     24 C         141.8687  139.3689  159.4739 C.3     1  UNL1        0.1729
     25 O         143.3481  139.5774  159.6067 O.3     1  UNL1       -0.3511
     26 C         144.1005  138.9216  160.7265 C.3     1  UNL1        0.1437
     27 C         143.3734  138.0573  161.7135 C.3     1  UNL1        0.0503
     28 C         141.8939  137.8487  161.5807 C.3     1  UNL1        0.0865
     29 C         138.7780  139.4353  159.9156 C.3     1  UNL1        0.1742
     30 O         139.6620  138.2959  160.3282 O.3     1  UNL1       -0.3496
@<TRIPOS>BOND
     1    29    30    1
     2    30    23    1
     3    23    24    1
     4    24    25    1
     5    25    26    1
     6    26    27    1
     7    27    28    1
     8    28    21    1
     9     1    21    1
    10     1     2    1
    11     3     2    1
    12     3     4    1
    13     4     5    1
    14     5     6    1
    15     6     7    1
    16     7     9    1
    17     9    10    2
    18     9    11   am
    19    11    12    1
    20    12    13    1
    21    13    14    1
    22    14    15   ar
    23    15    16   ar
    24    16    17   ar
    25    17    18   ar
    26    18    19   ar
    27    19    20    1
    28     7     8    1
    29    28    23    1
    30     8     1    1
    31     7     3    1
    32    20    11    1
    33    19    14   ar
    34    21    22    1
@<TRIPOS>MOLECULE
*****
 30 34 0 0 0
SMALL
GASTEIGER

@<TRIPOS>ATOM
      1 C         141.1569  141.9992  161.9996 C.3     1  UNL1        0.0545
      2 C         140.8622  143.4586  161.8170 C.3     1  UNL1        0.0162
      3 C         139.5512  143.7536  162.4833 C.3     1  UNL1        0.0095
      4 C         138.5587  144.8378  162.7823 C.3     1  UNL1        0.0005
      5 C         137.4298  144.2309  163.5615 C.3     1  UNL1        0.0005
      6 C         137.7245  142.7716  163.7441 C.3     1  UNL1        0.0087
      7 C         139.0356  142.4765  163.0777 C.3     1  UNL1        0.0704
      8 C         140.0280  141.3923  162.7788 C.3     1  UNL1        0.0243
      9 C         138.5200  141.1995  163.6721 C.2     1  UNL1        0.2250
     10 O         137.6727  140.2766  162.8472 O.2     1  UNL1       -0.2749
     11 N         138.8517  140.8452  165.0915 N.am    1  UNL1       -0.2750
     12 C         138.3362  139.5682  165.6859 C.3     1  UNL1        0.1000
     13 C         138.6678  139.2139  167.1052 C.3     1  UNL1        0.0670
     14 C         139.5152  140.1368  167.9302 C.ar    1  UNL1        0.0583
     15 N         139.8468  139.7825  169.3495 N.ar    1  UNL1       -0.2484
     16 C         140.6941  140.7053  170.1744 C.ar    1  UNL1        0.0984
     17 C         141.2097  141.9824  169.5800 C.ar    1  UNL1        0.0204
     18 C         140.8780  142.3366  168.1607 C.ar    1  UNL1        0.0002
     19 C         140.0307  141.4138  167.3358 C.ar    1  UNL1        0.0113
     20 C         139.6990  141.7680  165.9164 C.3     1  UNL1        0.1213
     21 N         142.3680  141.2740  161.4921 N.3     1  UNL1       -0.2975
     22 H         142.0380  140.3992  161.0845 H       1  UNL1        0.1232
     23 C         144.5821  141.9035  162.6968 C.3     1  UNL1        0.1591
     24 C         145.6942  141.5497  163.6392 C.3     1  UNL1        0.1729
     25 O         145.7042  140.2129  164.3193 O.3     1  UNL1       -0.3511
     26 C         144.6022  139.2297  164.0570 C.3     1  UNL1        0.1437
     27 C         143.4901  139.5834  163.1146 C.3     1  UNL1        0.0503
     28 C         143.4800  140.9203  162.4345 C.3     1  UNL1        0.0865
     29 C         144.1500  144.4642  162.7744 C.3     1  UNL1        0.1742
     30 O         144.5721  143.2404  162.0167 O.3     1  UNL1       -0.3496
@<TRIPOS>BOND
     1    29    30    1
     2    30    23    1
     3    23    24    1
     4    24    25    1
     5    25    26    1
     6    26    27    1
     7    27    28    1
     8    28    21    1
     9     1    21    1
    10     1     2    1
    11     3     2    1
    12     3     4    1
    13     4     5    1
    14     5     6    1
    15     6     7    1
    16     7     9    1
    17     9    10    2
    18     9    11   am
    19    11    12    1
    20    12    13    1
    21    13    14    1
    22    14    15   ar
    23    15    16   ar
    24    16    17   ar
    25    17    18   ar
    26    18    19   ar
    27    19    20    1
    28     7     8    1
    29    28    23    1
    30     8     1    1
    31     7     3    1
    32    20    11    1
    33    19    14   ar
    34    21    22    1
@<TRIPOS>MOLECULE
*****
 30 34 0 0 0
SMALL
GASTEIGER

@<TRIPOS>ATOM
      1 C         139.0787  138.6642  165.8433 C.3     1  UNL1        0.0545
      2 C         138.1881  138.8039  167.0421 C.3     1  UNL1        0.0162
      3 C         138.8892  139.6753  168.0414 C.3     1  UNL1        0.0095
      4 C         138.7721  140.3003  169.4000 C.3     1  UNL1        0.0005
      5 C         140.0237  141.0855  169.6585 C.3     1  UNL1        0.0005
      6 C         140.9144  140.9459  168.4597 C.3     1  UNL1        0.0087
      7 C         140.2132  140.0743  167.4603 C.3     1  UNL1        0.0704
      8 C         140.3304  139.4494  166.1018 C.3     1  UNL1        0.0243
      9 C         141.5373  140.4733  166.8792 C.2     1  UNL1        0.2250
     10 O         142.7867  139.7569  167.2981 O.2     1  UNL1       -0.2749
     11 N         141.6118  141.5888  165.8790 N.am    1  UNL1       -0.2750
     12 C         142.9359  141.9877  165.2978 C.3     1  UNL1        0.1000
     13 C         143.0105  143.1031  164.2977 C.3     1  UNL1        0.0670
     14 C         141.7610  143.8196  163.8787 C.ar    1  UNL1        0.0583
     15 N         141.8356  144.9350  162.8786 N.ar    1  UNL1       -0.2484
     16 C         140.5861  145.6514  162.4596 C.ar    1  UNL1        0.0984
     17 C         139.2621  145.2525  163.0408 C.ar    1  UNL1        0.0204
     18 C         139.1875  144.1371  164.0409 C.ar    1  UNL1        0.0002
     19 C         140.4369  143.4206  164.4598 C.ar    1  UNL1        0.0113
     20 C         140.3624  142.3052  165.4600 C.3     1  UNL1        0.1213
     21 N         138.7717  137.8774  164.6036 N.3     1  UNL1       -0.2975
     22 H         138.8671  136.8920  164.8491 H       1  UNL1        0.1232
     23 C         139.0414  138.9553  162.2551 C.3     1  UNL1        0.1591
     24 C         139.8497  139.1716  161.0101 C.3     1  UNL1        0.1729
     25 O         141.1964  138.5264  160.8687 O.3     1  UNL1       -0.3511
     26 C         141.7349  137.6648  161.9722 C.3     1  UNL1        0.1437
     27 C         140.9267  137.4485  163.2172 C.3     1  UNL1        0.0503
     28 C         139.5799  138.0938  163.3587 C.3     1  UNL1        0.0865
     29 C         137.5771  140.9640  163.0107 C.3     1  UNL1        0.1742
     30 O         137.6947  139.6005  162.3965 O.3     1  UNL1       -0.3496
@<TRIPOS>BOND
     1    29    30    1
     2    30    23    1
     3    23    24    1
     4    24    25    1
     5    25    26    1
     6    26    27    1
     7    27    28    1
     8    28    21    1
     9     1    21    1
    10     1     2    1
    11     3     2    1
    12     3     4    1
    13     4     5    1
    14     5     6    1
    15     6     7    1
    16     7     9    1
    17     9    10    2
    18     9    11   am
    19    11    12    1
    20    12    13    1
    21    13    14    1
    22    14    15   ar
    23    15    16   ar
    24    16    17   ar
    25    17    18   ar
    26    18    19   ar
    27    19    20    1
    28     7     8    1
    29    28    23    1
    30     8     1    1
    31     7     3    1
    32    20    11    1
    33    19    14   ar
    34    21    22    1
