@<TRIPOS>MOLECULE
*****
 27 29 0 0 0
SMALL
GASTEIGER

@<TRIPOS>ATOM
      1 N         139.5890  138.7649  165.1127 N.3     1  UNL1       -0.2713
      2 C         138.4062  138.4597  165.9832 C.3     1  UNL1        0.0749
      3 C         138.3554  138.9801  167.3891 C.3     1  UNL1        0.0485
      4 C         139.4875  139.8057  167.9245 C.3     1  UNL1        0.1096
      5 O         138.5895  139.7847  169.1259 O.3     1  UNL1       -0.3826
      6 C         140.6704  140.1109  167.0541 C.3     1  UNL1        0.0485
      7 C         140.7212  139.5905  165.6482 C.3     1  UNL1        0.0749
      8 H         137.7916  139.2713  168.9242 H       1  UNL1        0.2107
      9 C         140.3077  140.6241  168.8772 C.ar    1  UNL1        0.0018
     10 C         141.0200  139.9581  170.0169 C.ar    1  UNL1       -0.0020
     11 C         141.8402  140.7763  170.9696 C.ar    1  UNL1       -0.0002
     12 C         141.9481  142.2608  170.7825 C.ar    1  UNL1       -0.0000
     13 C         141.2358  142.9268  169.6428 C.ar    1  UNL1       -0.0002
     14 C         140.4156  142.1084  168.6901 C.ar    1  UNL1       -0.0020
     15 C         140.6416  137.1927  163.3321 C.3     1  UNL1        0.0203
     16 C         139.6398  138.2444  163.7068 C.3     1  UNL1        0.0888
     17 C         138.6888  138.7756  162.6756 C.3     1  UNL1        0.1472
     18 O         138.0045  137.8333  161.7303 O.3     1  UNL1       -0.3787
     19 H         137.4284  138.3359  161.1333 H       1  UNL1        0.2108
     20 C         138.4222  140.2493  162.5897 C.ar    1  UNL1        0.0058
     21 C         137.6123  140.9283  163.6541 C.ar    1  UNL1        0.0012
     22 C         137.3457  142.4018  163.5682 C.ar    1  UNL1        0.0364
     23 C         137.8890  143.1965  162.4178 C.ar    1  UNL1        0.1337
     24 O         137.6223  144.6701  162.3318 O.3     1  UNL1       -0.5055
     25 C         138.6988  142.5175  161.3533 C.ar    1  UNL1        0.0364
     26 C         138.9654  141.0439  161.4393 C.ar    1  UNL1        0.0012
     27 H         137.1164  145.0942  162.9968 H       1  UNL1        0.2922
@<TRIPOS>BOND
     1    16    15    1
     2    16    17    1
     3    17    18    1
     4    17    20    1
     5    20    21   ar
     6    21    22   ar
     7    22    23   ar
     8    23    24    1
     9    23    25   ar
    10    25    26   ar
    11    16     1    1
    12     1     2    1
    13     2     3    1
    14     3     4    1
    15     4     5    1
    16     4     9    1
    17     9    10   ar
    18    10    11   ar
    19    11    12   ar
    20    12    13   ar
    21    13    14   ar
    22     4     6    1
    23     6     7    1
    24    26    20   ar
    25     7     1    1
    26    14     9   ar
    27    18    19    1
    28    24    27    1
    29     5     8    1
@<TRIPOS>MOLECULE
*****
 27 29 0 0 0
SMALL
GASTEIGER

@<TRIPOS>ATOM
      1 N         139.8584  139.2724  164.7585 N.3     1  UNL1       -0.2713
      2 C         138.6960  138.6492  165.4729 C.3     1  UNL1        0.0749
      3 C         138.4589  138.9491  166.9233 C.3     1  UNL1        0.0485
      4 C         139.3841  139.8722  167.6594 C.3     1  UNL1        0.1096
      5 O         138.4277  139.5280  168.7625 O.3     1  UNL1       -0.3826
      6 C         140.5466  140.4955  166.9450 C.3     1  UNL1        0.0485
      7 C         140.7837  140.1956  165.4945 C.3     1  UNL1        0.0749
      8 H         137.7515  138.9194  168.4260 H       1  UNL1        0.2107
      9 C         139.9773  140.6758  168.7786 C.ar    1  UNL1        0.0018
     10 C         140.2929  140.0178  170.0890 C.ar    1  UNL1       -0.0020
     11 C         140.8860  140.8213  171.2082 C.ar    1  UNL1       -0.0002
     12 C         141.1635  142.2830  171.0168 C.ar    1  UNL1       -0.0000
     13 C         140.8479  142.9410  169.7063 C.ar    1  UNL1       -0.0002
     14 C         140.2548  142.1374  168.5872 C.ar    1  UNL1       -0.0020
     15 C         139.0134  139.2316  162.3019 C.3     1  UNL1        0.0203
     16 C         140.0955  138.9726  163.3080 C.3     1  UNL1        0.0888
     17 C         141.4146  138.4137  162.8636 C.3     1  UNL1        0.1472
     18 O         141.4998  137.0043  162.3573 O.3     1  UNL1       -0.3787
     19 H         142.4168  136.8031  162.1135 H       1  UNL1        0.2108
     20 C         142.6487  139.2642  162.9254 C.ar    1  UNL1        0.0058
     21 C         143.7273  138.9497  163.9191 C.ar    1  UNL1        0.0012
     22 C         144.9613  139.8002  163.9809 C.ar    1  UNL1        0.0364
     23 C         145.1166  140.9653  163.0489 C.ar    1  UNL1        0.1337
     24 O         146.3507  141.8158  163.1108 O.3     1  UNL1       -0.5055
     25 C         144.0380  141.2798  162.0552 C.ar    1  UNL1        0.0364
     26 C         142.8040  140.4293  161.9935 C.ar    1  UNL1        0.0012
     27 H         147.0245  141.6194  163.7315 H       1  UNL1        0.2922
@<TRIPOS>BOND
     1    16    15    1
     2    16    17    1
     3    17    18    1
     4    17    20    1
     5    20    21   ar
     6    21    22   ar
     7    22    23   ar
     8    23    24    1
     9    23    25   ar
    10    25    26   ar
    11    16     1    1
    12     1     2    1
    13     2     3    1
    14     3     4    1
    15     4     5    1
    16     4     9    1
    17     9    10   ar
    18    10    11   ar
    19    11    12   ar
    20    12    13   ar
    21    13    14   ar
    22     4     6    1
    23     6     7    1
    24    26    20   ar
    25     7     1    1
    26    14     9   ar
    27    18    19    1
    28    24    27    1
    29     5     8    1
@<TRIPOS>MOLECULE
*****
 27 29 0 0 0
SMALL
GASTEIGER

@<TRIPOS>ATOM
      1 N         139.1012  139.8684  164.7848 N.3     1  UNL1       -0.2713
      2 C         138.1768  139.1477  165.7207 C.3     1  UNL1        0.0749
      3 C         138.3563  139.2825  167.2038 C.3     1  UNL1        0.0485
      4 C         139.4603  140.1379  167.7510 C.3     1  UNL1        0.1096
      5 O         138.8450  139.6562  169.0315 O.3     1  UNL1       -0.3826
      6 C         140.3848  140.8586  166.8151 C.3     1  UNL1        0.0485
      7 C         140.2053  140.7238  165.3320 C.3     1  UNL1        0.0749
      8 H         138.0950  139.0746  168.8311 H       1  UNL1        0.2107
      9 C         140.3506  140.8261  168.7429 C.ar    1  UNL1        0.0018
     10 C         140.4364  142.3235  168.7613 C.ar    1  UNL1       -0.0020
     11 C         141.3267  143.0117  169.7531 C.ar    1  UNL1       -0.0002
     12 C         142.1313  142.2023  170.7266 C.ar    1  UNL1       -0.0000
     13 C         142.0455  140.7049  170.7083 C.ar    1  UNL1       -0.0002
     14 C         141.1552  140.0168  169.7164 C.ar    1  UNL1       -0.0020
     15 C         139.4750  138.5377  162.5849 C.3     1  UNL1        0.0203
     16 C         138.9217  139.7336  163.3017 C.3     1  UNL1        0.0888
     17 C         138.1889  140.7946  162.5354 C.3     1  UNL1        0.1472
     18 O         136.9277  140.4522  161.7992 O.3     1  UNL1       -0.3787
     19 H         136.5839  141.2459  161.3602 H       1  UNL1        0.2108
     20 C         138.7174  142.1982  162.5053 C.ar    1  UNL1        0.0058
     21 C         137.8553  143.3343  162.9702 C.ar    1  UNL1        0.0012
     22 C         138.3838  144.7377  162.9401 C.ar    1  UNL1        0.0364
     23 C         139.7743  145.0051  162.4451 C.ar    1  UNL1        0.1337
     24 O         140.3027  146.4087  162.4150 O.3     1  UNL1       -0.5055
     25 C         140.6363  143.8690  161.9802 C.ar    1  UNL1        0.0364
     26 C         140.1079  142.4656  162.0103 C.ar    1  UNL1        0.0012
     27 H         139.7642  147.1184  162.7054 H       1  UNL1        0.2922
@<TRIPOS>BOND
     1    16    15    1
     2    16    17    1
     3    17    18    1
     4    17    20    1
     5    20    21   ar
     6    21    22   ar
     7    22    23   ar
     8    23    24    1
     9    23    25   ar
    10    25    26   ar
    11    16     1    1
    12     1     2    1
    13     2     3    1
    14     3     4    1
    15     4     5    1
    16     4     9    1
    17     9    10   ar
    18    10    11   ar
    19    11    12   ar
    20    12    13   ar
    21    13    14   ar
    22     4     6    1
    23     6     7    1
    24    26    20   ar
    25     7     1    1
    26    14     9   ar
    27    18    19    1
    28    24    27    1
    29     5     8    1
@<TRIPOS>MOLECULE
*****
 27 29 0 0 0
SMALL
GASTEIGER

@<TRIPOS>ATOM
      1 N         142.9062  139.3247  164.7641 N.3     1  UNL1       -0.2713
      2 C         143.2754  138.3464  165.8395 C.3     1  UNL1        0.0749
      3 C         143.1639  138.7406  167.2825 C.3     1  UNL1        0.0485
      4 C         142.6833  140.1131  167.6501 C.3     1  UNL1        0.1096
      5 O         142.9133  139.5426  169.0182 O.3     1  UNL1       -0.3826
      6 C         142.3141  141.0915  166.5746 C.3     1  UNL1        0.0485
      7 C         142.4255  140.6973  165.1316 C.3     1  UNL1        0.0749
      8 H         143.2357  138.6313  168.9385 H       1  UNL1        0.2107
      9 C         142.2825  141.2876  168.4928 C.ar    1  UNL1        0.0018
     10 C         140.9244  141.9019  168.3257 C.ar    1  UNL1       -0.0020
     11 C         140.5236  143.0763  169.1683 C.ar    1  UNL1       -0.0002
     12 C         141.4811  143.6364  170.1782 C.ar    1  UNL1       -0.0000
     13 C         142.8392  143.0220  170.3453 C.ar    1  UNL1       -0.0002
     14 C         143.2400  141.8476  169.5026 C.ar    1  UNL1       -0.0020
     15 C         144.3330  139.0510  162.6102 C.3     1  UNL1        0.0203
     16 C         143.0176  138.9305  163.3211 C.3     1  UNL1        0.0888
     17 C         141.8138  138.4158  162.5891 C.3     1  UNL1        0.1472
     18 O         141.9187  137.1758  161.7516 O.3     1  UNL1       -0.3787
     19 H         141.0569  136.9827  161.3506 H       1  UNL1        0.2108
     20 C         140.5050  139.1412  162.6945 C.ar    1  UNL1        0.0058
     21 C         139.4708  138.6829  163.6796 C.ar    1  UNL1        0.0012
     22 C         138.1621  139.4083  163.7850 C.ar    1  UNL1        0.0364
     23 C         137.8877  140.5919  162.9053 C.ar    1  UNL1        0.1337
     24 O         136.5789  141.3172  163.0108 O.3     1  UNL1       -0.5055
     25 C         138.9219  141.0501  161.9203 C.ar    1  UNL1        0.0364
     26 C         140.2306  140.3248  161.8149 C.ar    1  UNL1        0.0012
     27 H         135.9328  141.0310  163.6261 H       1  UNL1        0.2922
@<TRIPOS>BOND
     1    16    15    1
     2    16    17    1
     3    17    18    1
     4    17    20    1
     5    20    21   ar
     6    21    22   ar
     7    22    23   ar
     8    23    24    1
     9    23    25   ar
    10    25    26   ar
    11    16     1    1
    12     1     2    1
    13     2     3    1
    14     3     4    1
    15     4     5    1
    16     4     9    1
    17     9    10   ar
    18    10    11   ar
    19    11    12   ar
    20    12    13   ar
    21    13    14   ar
    22     4     6    1
    23     6     7    1
    24    26    20   ar
    25     7     1    1
    26    14     9   ar
    27    18    19    1
    28    24    27    1
    29     5     8    1
@<TRIPOS>MOLECULE
*****
 27 29 0 0 0
SMALL
GASTEIGER

@<TRIPOS>ATOM
      1 N         138.6842  140.7081  164.8437 N.3     1  UNL1       -0.2713
      2 C         138.2843  139.5992  165.7713 C.3     1  UNL1        0.0749
      3 C         138.8812  139.5185  167.1450 C.3     1  UNL1        0.0485
      4 C         139.8781  140.5466  167.5912 C.3     1  UNL1        0.1096
      5 O         139.8170  139.6917  168.8222 O.3     1  UNL1       -0.3826
      6 C         140.2781  141.6556  166.6636 C.3     1  UNL1        0.0485
      7 C         139.6812  141.7363  165.2899 C.3     1  UNL1        0.0749
      8 H         139.1932  138.9628  168.6790 H       1  UNL1        0.2107
      9 C         140.8538  141.2779  168.4649 C.ar    1  UNL1        0.0018
     10 C         140.4943  142.6195  169.0312 C.ar    1  UNL1       -0.0020
     11 C         141.4699  143.3507  169.9049 C.ar    1  UNL1       -0.0002
     12 C         142.8052  142.7403  170.2123 C.ar    1  UNL1       -0.0000
     13 C         143.1648  141.3987  169.6460 C.ar    1  UNL1       -0.0002
     14 C         142.1891  140.6674  168.7723 C.ar    1  UNL1       -0.0020
     15 C         137.2745  141.9860  163.0746 C.3     1  UNL1        0.0203
     16 C         138.0873  140.7888  163.4700 C.3     1  UNL1        0.0888
     17 C         138.3031  139.6725  162.4917 C.3     1  UNL1        0.1472
     18 O         137.1397  139.1024  161.7357 O.3     1  UNL1       -0.3787
     19 H         137.4504  138.3943  161.1500 H       1  UNL1        0.2108
     20 C         139.6823  139.1262  162.2693 C.ar    1  UNL1        0.0058
     21 C         140.1521  137.9350  163.0504 C.ar    1  UNL1        0.0012
     22 C         141.5313  137.3888  162.8280 C.ar    1  UNL1        0.0364
     23 C         142.4407  138.0338  161.8245 C.ar    1  UNL1        0.1337
     24 O         143.8199  137.4876  161.6022 O.3     1  UNL1       -0.5055
     25 C         141.9709  139.2251  161.0435 C.ar    1  UNL1        0.0364
     26 C         140.5917  139.7713  161.2658 C.ar    1  UNL1        0.0012
     27 H         144.1134  136.7434  162.0901 H       1  UNL1        0.2922
@<TRIPOS>BOND
     1    16    15    1
     2    16    17    1
     3    17    18    1
     4    17    20    1
     5    20    21   ar
     6    21    22   ar
     7    22    23   ar
     8    23    24    1
     9    23    25   ar
    10    25    26   ar
    11    16     1    1
    12     1     2    1
    13     2     3    1
    14     3     4    1
    15     4     5    1
    16     4     9    1
    17     9    10   ar
    18    10    11   ar
    19    11    12   ar
    20    12    13   ar
    21    13    14   ar
    22     4     6    1
    23     6     7    1
    24    26    20   ar
    25     7     1    1
    26    14     9   ar
    27    18    19    1
    28    24    27    1
    29     5     8    1
@<TRIPOS>MOLECULE
*****
 27 29 0 0 0
SMALL
GASTEIGER

@<TRIPOS>ATOM
      1 N         142.4713  139.0000  164.6936 N.3     1  UNL1       -0.2713
      2 C         143.3759  138.3624  165.7060 C.3     1  UNL1        0.0749
      3 C         143.2485  138.7211  167.1569 C.3     1  UNL1        0.0485
      4 C         142.2165  139.7173  167.5954 C.3     1  UNL1        0.1096
      5 O         142.8376  139.3857  168.9199 O.3     1  UNL1       -0.3826
      6 C         141.3118  140.3550  166.5829 C.3     1  UNL1        0.0485
      7 C         141.4392  139.9963  165.1320 C.3     1  UNL1        0.0749
      8 H         143.5437  138.7331  168.7916 H       1  UNL1        0.2107
      9 C         141.4001  140.5985  168.4938 C.ar    1  UNL1        0.0018
     10 C         140.1170  140.0887  169.0801 C.ar    1  UNL1       -0.0020
     11 C         139.3006  140.9697  169.9786 C.ar    1  UNL1       -0.0002
     12 C         139.7674  142.3608  170.2907 C.ar    1  UNL1       -0.0000
     13 C         141.0505  142.8706  169.7044 C.ar    1  UNL1       -0.0002
     14 C         141.8669  141.9894  168.8060 C.ar    1  UNL1       -0.0020
     15 C         141.7100  137.5884  162.6495 C.3     1  UNL1        0.0203
     16 C         142.5987  138.6413  163.2427 C.3     1  UNL1        0.0888
     17 C         143.6148  139.3354  162.3849 C.3     1  UNL1        0.1472
     18 O         144.5051  138.5356  161.4808 O.3     1  UNL1       -0.3787
     19 H         145.0990  139.1334  161.0003 H       1  UNL1        0.2108
     20 C         143.7404  140.8295  162.4313 C.ar    1  UNL1        0.0058
     21 C         144.6697  141.4738  163.4168 C.ar    1  UNL1        0.0012
     22 C         144.7954  142.9677  163.4632 C.ar    1  UNL1        0.0364
     23 C         143.9917  143.8175  162.5239 C.ar    1  UNL1        0.1337
     24 O         144.1174  145.3115  162.5703 O.3     1  UNL1       -0.5055
     25 C         143.0625  143.1732  161.5384 C.ar    1  UNL1        0.0364
     26 C         142.9368  141.6792  161.4921 C.ar    1  UNL1        0.0012
     27 H         144.6979  145.7140  163.1859 H       1  UNL1        0.2922
@<TRIPOS>BOND
     1    16    15    1
     2    16    17    1
     3    17    18    1
     4    17    20    1
     5    20    21   ar
     6    21    22   ar
     7    22    23   ar
     8    23    24    1
     9    23    25   ar
    10    25    26   ar
    11    16     1    1
    12     1     2    1
    13     2     3    1
    14     3     4    1
    15     4     5    1
    16     4     9    1
    17     9    10   ar
    18    10    11   ar
    19    11    12   ar
    20    12    13   ar
    21    13    14   ar
    22     4     6    1
    23     6     7    1
    24    26    20   ar
    25     7     1    1
    26    14     9   ar
    27    18    19    1
    28    24    27    1
    29     5     8    1
@<TRIPOS>MOLECULE
*****
 27 29 0 0 0
SMALL
GASTEIGER

@<TRIPOS>ATOM
      1 N         139.3353  142.8991  164.4361 N.3     1  UNL1       -0.2713
      2 C         138.5501  141.6368  164.2367 C.3     1  UNL1        0.0749
      3 C         138.6823  140.5086  165.2164 C.3     1  UNL1        0.0485
      4 C         139.5998  140.6428  166.3954 C.3     1  UNL1        0.1096
      5 O         139.0692  139.2602  166.6343 O.3     1  UNL1       -0.3826
      6 C         140.3851  141.9052  166.5948 C.3     1  UNL1        0.0485
      7 C         140.2529  143.0333  165.6152 C.3     1  UNL1        0.0749
      8 H         138.4438  139.0277  165.9302 H       1  UNL1        0.2107
      9 C         140.3330  140.2968  167.6574 C.ar    1  UNL1        0.0018
     10 C         141.7734  139.8824  167.5984 C.ar    1  UNL1       -0.0020
     11 C         142.5067  139.5364  168.8604 C.ar    1  UNL1       -0.0002
     12 C         141.7994  139.6049  170.1815 C.ar    1  UNL1       -0.0000
     13 C         140.3591  140.0193  170.2405 C.ar    1  UNL1       -0.0002
     14 C         139.6258  140.3652  168.9785 C.ar    1  UNL1       -0.0020
     15 C         137.8613  144.3630  162.8758 C.3     1  UNL1        0.0203
     16 C         139.2031  144.0273  163.4564 C.3     1  UNL1        0.0888
     17 C         140.4125  144.8198  163.0575 C.3     1  UNL1        0.1472
     18 O         140.3037  146.3015  162.8512 O.3     1  UNL1       -0.3787
     19 H         141.1700  146.6573  162.5984 H       1  UNL1        0.2108
     20 C         141.7308  144.1305  162.8647 C.ar    1  UNL1        0.0058
     21 C         141.8221  142.9187  161.9855 C.ar    1  UNL1        0.0012
     22 C         143.1403  142.2295  161.7929 C.ar    1  UNL1        0.0364
     23 C         144.3673  142.7521  162.4794 C.ar    1  UNL1        0.1337
     24 O         145.6856  142.0629  162.2867 O.3     1  UNL1       -0.5055
     25 C         144.2761  143.9640  163.3586 C.ar    1  UNL1        0.0364
     26 C         142.9578  144.6532  163.5513 C.ar    1  UNL1        0.0012
     27 H         145.7426  141.3059  161.7375 H       1  UNL1        0.2922
@<TRIPOS>BOND
     1    16    15    1
     2    16    17    1
     3    17    18    1
     4    17    20    1
     5    20    21   ar
     6    21    22   ar
     7    22    23   ar
     8    23    24    1
     9    23    25   ar
    10    25    26   ar
    11    16     1    1
    12     1     2    1
    13     2     3    1
    14     3     4    1
    15     4     5    1
    16     4     9    1
    17     9    10   ar
    18    10    11   ar
    19    11    12   ar
    20    12    13   ar
    21    13    14   ar
    22     4     6    1
    23     6     7    1
    24    26    20   ar
    25     7     1    1
    26    14     9   ar
    27    18    19    1
    28    24    27    1
    29     5     8    1
@<TRIPOS>MOLECULE
*****
 27 29 0 0 0
SMALL
GASTEIGER

@<TRIPOS>ATOM
      1 N         143.0533  140.8267  164.8731 N.3     1  UNL1       -0.2713
      2 C         141.7709  140.1402  164.5071 C.3     1  UNL1        0.0749
      3 C         140.5987  140.1930  165.4416 C.3     1  UNL1        0.0485
      4 C         140.7090  140.9323  166.7420 C.3     1  UNL1        0.1096
      5 O         139.2942  140.4436  166.8395 O.3     1  UNL1       -0.3826
      6 C         141.9915  141.6188  167.1081 C.3     1  UNL1        0.0485
      7 C         143.1637  141.5660  166.1736 C.3     1  UNL1        0.0749
      8 H         139.0730  139.9331  166.0449 H       1  UNL1        0.2107
      9 C         140.3280  141.5019  168.0764 C.ar    1  UNL1        0.0018
     10 C         140.6691  142.9239  168.4099 C.ar    1  UNL1       -0.0020
     11 C         140.2881  143.4936  169.7441 C.ar    1  UNL1       -0.0002
     12 C         139.5659  142.6410  170.7450 C.ar    1  UNL1       -0.0000
     13 C         139.2247  141.2189  170.4115 C.ar    1  UNL1       -0.0002
     14 C         139.6058  140.6493  169.0772 C.ar    1  UNL1       -0.0020
     15 C         145.0503  139.5248  163.8398 C.3     1  UNL1        0.0203
     16 C         144.2255  140.7739  163.9386 C.3     1  UNL1        0.0888
     17 C         144.5729  141.9700  163.1029 C.3     1  UNL1        0.1472
     18 O         145.9116  142.0524  162.4312 O.3     1  UNL1       -0.3787
     19 H         145.9735  142.8833  161.9345 H       1  UNL1        0.2108
     20 C         143.5816  143.0839  162.9389 C.ar    1  UNL1        0.0058
     21 C         142.5512  143.0167  161.8510 C.ar    1  UNL1        0.0012
     22 C         141.5600  144.1305  161.6871 C.ar    1  UNL1        0.0364
     23 C         141.5993  145.3115  162.6110 C.ar    1  UNL1        0.1337
     24 O         140.6080  146.4253  162.4470 O.3     1  UNL1       -0.5055
     25 C         142.6297  145.3787  163.6989 C.ar    1  UNL1        0.0364
     26 C         143.6209  144.2649  163.8629 C.ar    1  UNL1        0.0012
     27 H         139.9643  146.3834  161.7674 H       1  UNL1        0.2922
@<TRIPOS>BOND
     1    16    15    1
     2    16    17    1
     3    17    18    1
     4    17    20    1
     5    20    21   ar
     6    21    22   ar
     7    22    23   ar
     8    23    24    1
     9    23    25   ar
    10    25    26   ar
    11    16     1    1
    12     1     2    1
    13     2     3    1
    14     3     4    1
    15     4     5    1
    16     4     9    1
    17     9    10   ar
    18    10    11   ar
    19    11    12   ar
    20    12    13   ar
    21    13    14   ar
    22     4     6    1
    23     6     7    1
    24    26    20   ar
    25     7     1    1
    26    14     9   ar
    27    18    19    1
    28    24    27    1
    29     5     8    1
@<TRIPOS>MOLECULE
*****
 27 29 0 0 0
SMALL
GASTEIGER

@<TRIPOS>ATOM
      1 N         139.3345  139.8662  164.0004 N.3     1  UNL1       -0.2713
      2 C         140.8245  139.7072  164.0680 C.3     1  UNL1        0.0749
      3 C         141.5659  140.1074  165.3090 C.3     1  UNL1        0.0485
      4 C         140.8174  140.6666  166.4824 C.3     1  UNL1        0.1096
      5 O         142.2162  140.7066  167.0227 O.3     1  UNL1       -0.3826
      6 C         139.3273  140.8257  166.4148 C.3     1  UNL1        0.0485
      7 C         138.5859  140.4255  165.1738 C.3     1  UNL1        0.0749
      8 H         142.8307  140.3647  166.3546 H       1  UNL1        0.2107
      9 C         140.5546  141.2398  167.8435 C.ar    1  UNL1        0.0018
     10 C         140.7101  142.7128  168.0798 C.ar    1  UNL1       -0.0020
     11 C         140.4473  143.2860  169.4408 C.ar    1  UNL1       -0.0002
     12 C         140.0291  142.3860  170.5656 C.ar    1  UNL1       -0.0000
     13 C         139.8736  140.9130  170.3293 C.ar    1  UNL1       -0.0002
     14 C         140.1364  140.3398  168.9682 C.ar    1  UNL1       -0.0020
     15 C         138.4865  138.0177  162.3836 C.3     1  UNL1        0.0203
     16 C         138.5930  139.4660  162.7594 C.3     1  UNL1        0.0888
     17 C         137.9582  140.5140  161.8942 C.3     1  UNL1        0.1472
     18 O         136.8795  140.1331  160.9240 O.3     1  UNL1       -0.3787
     19 H         136.5798  140.9229  160.4472 H       1  UNL1        0.2108
     20 C         138.4021  141.9431  161.9992 C.ar    1  UNL1        0.0058
     21 C         139.6404  142.3981  161.2856 C.ar    1  UNL1        0.0012
     22 C         140.0842  143.8271  161.3906 C.ar    1  UNL1        0.0364
     23 C         139.2896  144.8010  162.2092 C.ar    1  UNL1        0.1337
     24 O         139.7334  146.2300  162.3142 O.3     1  UNL1       -0.5055
     25 C         138.0512  144.3459  162.9228 C.ar    1  UNL1        0.0364
     26 C         137.6074  142.9170  162.8178 C.ar    1  UNL1        0.0012
     27 H         140.5070  146.5143  161.8684 H       1  UNL1        0.2922
@<TRIPOS>BOND
     1    16    15    1
     2    16    17    1
     3    17    18    1
     4    17    20    1
     5    20    21   ar
     6    21    22   ar
     7    22    23   ar
     8    23    24    1
     9    23    25   ar
    10    25    26   ar
    11    16     1    1
    12     1     2    1
    13     2     3    1
    14     3     4    1
    15     4     5    1
    16     4     9    1
    17     9    10   ar
    18    10    11   ar
    19    11    12   ar
    20    12    13   ar
    21    13    14   ar
    22     4     6    1
    23     6     7    1
    24    26    20   ar
    25     7     1    1
    26    14     9   ar
    27    18    19    1
    28    24    27    1
    29     5     8    1
