@<TRIPOS>MOLECULE
*****
 30 33 0 0 0
SMALL
GASTEIGER

@<TRIPOS>ATOM
      1 O         140.9702  136.9425  163.0185 O.2     1  UNL1       -0.2668
      2 C         140.4093  138.3140  163.2513 C.2     1  UNL1        0.2806
      3 N         140.2615  139.2686  162.1038 N.am    1  UNL1       -0.2999
      4 H         139.8933  140.1688  162.2566 H       1  UNL1        0.1498
      5 C         139.9963  138.7310  164.6318 C.ar    1  UNL1        0.2014
      6 C         138.7285  138.1961  165.2289 C.ar    1  UNL1        0.0843
      7 C         138.3154  138.6131  166.6093 C.ar    1  UNL1        0.2018
      8 O         137.0476  138.0782  167.2065 O.2     1  UNL1       -0.2864
      9 C         139.1702  139.5650  167.3926 C.ar    1  UNL1        0.0737
     10 C         138.7571  139.9819  168.7730 C.ar    1  UNL1        0.0085
     11 C         139.6118  140.9337  169.5562 C.ar    1  UNL1        0.0299
     12 C         140.8796  141.4686  168.9590 C.ar    1  UNL1        0.1432
     13 F         141.7343  142.4205  169.7422 F       1  UNL1       -0.2041
     14 C         141.2927  141.0517  167.5786 C.ar    1  UNL1        0.0672
     15 C         140.4379  140.0998  166.7954 C.ar    1  UNL1        0.1508
     16 O         140.8510  139.6828  165.4150 O.2     1  UNL1       -0.4486
     17 C         140.6745  138.8517  160.7234 C.3     1  UNL1        0.0747
     18 C         139.6399  138.6782  159.6512 C.3     1  UNL1        0.0369
     19 C         140.0529  138.2613  158.2708 C.3     1  UNL1        0.0741
     20 N         141.5006  138.0178  157.9625 N.3     1  UNL1       -0.2689
     21 C         142.5352  138.1912  159.0347 C.3     1  UNL1        0.0741
     22 C         142.1221  138.6082  160.4151 C.3     1  UNL1        0.0369
     23 C         141.9136  137.6008  156.5821 C.3     1  UNL1        0.0992
     24 C         142.1178  136.1486  156.2669 C.ar    1  UNL1       -0.0039
     25 C         141.1788  135.4447  155.3327 C.ar    1  UNL1       -0.0028
     26 C         141.3830  133.9925  155.0175 C.ar    1  UNL1        0.0020
     27 C         142.5262  133.2442  155.6363 C.ar    1  UNL1        0.0296
     28 C         143.4652  133.9481  156.5705 C.ar    1  UNL1        0.1399
     29 F         144.6086  133.1999  157.1894 F       1  UNL1       -0.2042
     30 C         143.2610  135.4003  156.8857 C.ar    1  UNL1        0.0267
@<TRIPOS>BOND
     1     1     2    2
     2     2     3   am
     3     3    17    1
     4    17    18    1
     5    18    19    1
     6    19    20    1
     7    20    23    1
     8    23    24    1
     9    24    25   ar
    10    25    26   ar
    11    26    27   ar
    12    27    28   ar
    13    28    29    1
    14    28    30   ar
    15    20    21    1
    16    21    22    1
    17     2     5    1
    18     5     6   ar
    19     6     7   ar
    20     7     8    2
    21     7     9   ar
    22     9    10   ar
    23    10    11   ar
    24    11    12   ar
    25    12    13    1
    26    12    14   ar
    27    14    15   ar
    28    15    16   ar
    29    22    17    1
    30    16     5   ar
    31    30    24   ar
    32    15     9   ar
    33     3     4    1
@<TRIPOS>MOLECULE
*****
 30 33 0 0 0
SMALL
GASTEIGER

@<TRIPOS>ATOM
      1 O         142.3097  138.9943  158.4855 O.2     1  UNL1       -0.2668
      2 C         142.6249  137.5545  158.7641 C.2     1  UNL1        0.2806
      3 N         143.0329  137.1294  160.1435 N.am    1  UNL1       -0.2999
      4 H         143.2397  136.1844  160.3264 H       1  UNL1        0.1498
      5 C         142.5320  136.5397  157.6633 C.ar    1  UNL1        0.2014
      6 C         141.5751  136.7508  156.5276 C.ar    1  UNL1        0.0843
      7 C         141.4822  135.7361  155.4268 C.ar    1  UNL1        0.2018
      8 O         140.5253  135.9471  154.2910 O.2     1  UNL1       -0.2864
      9 C         142.3461  134.5103  155.4617 C.ar    1  UNL1        0.0737
     10 C         142.2532  133.4956  154.3610 C.ar    1  UNL1        0.0085
     11 C         143.1171  132.2699  154.3959 C.ar    1  UNL1        0.0299
     12 C         144.0740  132.0589  155.5317 C.ar    1  UNL1        0.1432
     13 F         144.9379  130.8331  155.5666 F       1  UNL1       -0.2041
     14 C         144.1669  133.0736  156.6325 C.ar    1  UNL1        0.0672
     15 C         143.3030  134.2993  156.5975 C.ar    1  UNL1        0.1508
     16 O         143.3959  135.3140  157.6983 O.2     1  UNL1       -0.4486
     17 C         143.1258  138.1441  161.2443 C.3     1  UNL1        0.0747
     18 C         142.0988  138.1609  162.3374 C.3     1  UNL1        0.0369
     19 C         142.1917  139.1756  163.4382 C.3     1  UNL1        0.0741
     20 N         143.3116  140.1735  163.4459 N.3     1  UNL1       -0.2689
     21 C         144.3387  140.1566  162.3528 C.3     1  UNL1        0.0741
     22 C         144.2457  139.1419  161.2520 C.3     1  UNL1        0.0369
     23 C         143.4046  141.1881  164.5467 C.3     1  UNL1        0.0992
     24 C         142.9871  142.6069  164.2961 C.ar    1  UNL1       -0.0039
     25 C         144.0006  143.6197  163.8523 C.ar    1  UNL1       -0.0028
     26 C         143.5832  145.0385  163.6018 C.ar    1  UNL1        0.0020
     27 C         142.1522  145.4445  163.7950 C.ar    1  UNL1        0.0296
     28 C         141.1387  144.4317  164.2388 C.ar    1  UNL1        0.1399
     29 F         139.7076  144.8377  164.4320 F       1  UNL1       -0.2042
     30 C         141.5561  143.0129  164.4894 C.ar    1  UNL1        0.0267
@<TRIPOS>BOND
     1     1     2    2
     2     2     3   am
     3     3    17    1
     4    17    18    1
     5    18    19    1
     6    19    20    1
     7    20    23    1
     8    23    24    1
     9    24    25   ar
    10    25    26   ar
    11    26    27   ar
    12    27    28   ar
    13    28    29    1
    14    28    30   ar
    15    20    21    1
    16    21    22    1
    17     2     5    1
    18     5     6   ar
    19     6     7   ar
    20     7     8    2
    21     7     9   ar
    22     9    10   ar
    23    10    11   ar
    24    11    12   ar
    25    12    13    1
    26    12    14   ar
    27    14    15   ar
    28    15    16   ar
    29    22    17    1
    30    16     5   ar
    31    30    24   ar
    32    15     9   ar
    33     3     4    1
@<TRIPOS>MOLECULE
*****
 30 33 0 0 0
SMALL
GASTEIGER

@<TRIPOS>ATOM
      1 O         143.6754  139.2389  158.7544 O.2     1  UNL1       -0.2668
      2 C         142.8511  138.0168  159.0316 C.2     1  UNL1        0.2806
      3 N         142.3183  137.7687  160.4117 N.am    1  UNL1       -0.2999
      4 H         141.7773  136.9666  160.5937 H       1  UNL1        0.1498
      5 C         142.5594  137.0428  157.9288 C.ar    1  UNL1        0.2014
      6 C         141.4453  137.3157  156.9622 C.ar    1  UNL1        0.0843
      7 C         141.1536  136.3417  155.8594 C.ar    1  UNL1        0.2018
      8 O         140.0395  136.6147  154.8929 O.2     1  UNL1       -0.2864
      9 C         141.9761  135.0947  155.7231 C.ar    1  UNL1        0.0737
     10 C         141.6845  134.1207  154.6203 C.ar    1  UNL1        0.0085
     11 C         142.5070  132.8738  154.4840 C.ar    1  UNL1        0.0299
     12 C         143.6211  132.6009  155.4505 C.ar    1  UNL1        0.1432
     13 F         144.4437  131.3539  155.3142 F       1  UNL1       -0.2041
     14 C         143.9128  133.5749  156.5533 C.ar    1  UNL1        0.0672
     15 C         143.0903  134.8218  156.6896 C.ar    1  UNL1        0.1508
     16 O         143.3819  135.7958  157.7925 O.2     1  UNL1       -0.4486
     17 C         142.6099  138.7427  161.5145 C.3     1  UNL1        0.0747
     18 C         143.9494  138.7324  162.1896 C.3     1  UNL1        0.0369
     19 C         144.2410  139.7064  163.2924 C.3     1  UNL1        0.0741
     20 N         143.1931  140.6908  163.7202 N.3     1  UNL1       -0.2689
     21 C         141.8536  140.7011  163.0452 C.3     1  UNL1        0.0741
     22 C         141.5621  139.7271  161.9423 C.3     1  UNL1        0.0369
     23 C         143.4847  141.6648  164.8231 C.3     1  UNL1        0.0992
     24 C         143.1887  141.2965  166.2467 C.ar    1  UNL1       -0.0039
     25 C         142.8559  139.8773  166.6006 C.ar    1  UNL1       -0.0028
     26 C         142.5599  139.5090  168.0243 C.ar    1  UNL1        0.0020
     27 C         142.5968  140.5598  169.0940 C.ar    1  UNL1        0.0296
     28 C         142.9296  141.9790  168.7401 C.ar    1  UNL1        0.1399
     29 F         142.9665  143.0299  169.8099 F       1  UNL1       -0.2042
     30 C         143.2256  142.3473  167.3165 C.ar    1  UNL1        0.0267
@<TRIPOS>BOND
     1     1     2    2
     2     2     3   am
     3     3    17    1
     4    17    18    1
     5    18    19    1
     6    19    20    1
     7    20    23    1
     8    23    24    1
     9    24    25   ar
    10    25    26   ar
    11    26    27   ar
    12    27    28   ar
    13    28    29    1
    14    28    30   ar
    15    20    21    1
    16    21    22    1
    17     2     5    1
    18     5     6   ar
    19     6     7   ar
    20     7     8    2
    21     7     9   ar
    22     9    10   ar
    23    10    11   ar
    24    11    12   ar
    25    12    13    1
    26    12    14   ar
    27    14    15   ar
    28    15    16   ar
    29    22    17    1
    30    16     5   ar
    31    30    24   ar
    32    15     9   ar
    33     3     4    1
@<TRIPOS>MOLECULE
*****
 30 33 0 0 0
SMALL
GASTEIGER

@<TRIPOS>ATOM
      1 O         138.1240  143.5577  161.2173 O.2     1  UNL1       -0.2668
      2 C         139.4902  143.1118  161.6470 C.2     1  UNL1        0.2806
      3 N         140.6565  143.2656  160.7164 N.am    1  UNL1       -0.2999
      4 H         141.5532  142.9729  160.9984 H       1  UNL1        0.1498
      5 C         139.6901  142.5122  163.0073 C.ar    1  UNL1        0.2014
      6 C         140.8238  142.9770  163.8727 C.ar    1  UNL1        0.0843
      7 C         141.0237  142.3774  165.2330 C.ar    1  UNL1        0.2018
      8 O         142.1573  142.8423  166.0983 O.2     1  UNL1       -0.2864
      9 C         140.0900  141.3128  165.7280 C.ar    1  UNL1        0.0737
     10 C         140.2900  140.7132  167.0883 C.ar    1  UNL1        0.0085
     11 C         139.3563  139.6487  167.5832 C.ar    1  UNL1        0.0299
     12 C         138.2227  139.1838  166.7179 C.ar    1  UNL1        0.1432
     13 F         137.2890  138.1192  167.2129 F       1  UNL1       -0.2041
     14 C         138.0227  139.7834  165.3576 C.ar    1  UNL1        0.0672
     15 C         138.9564  140.8480  164.8627 C.ar    1  UNL1        0.1508
     16 O         138.7565  141.4476  163.5023 O.2     1  UNL1       -0.4486
     17 C         140.4567  143.8653  159.3561 C.3     1  UNL1        0.0747
     18 C         139.6551  143.1304  158.3229 C.3     1  UNL1        0.0369
     19 C         139.4553  143.7301  156.9626 C.3     1  UNL1        0.0741
     20 N         140.0570  145.0646  156.6355 N.3     1  UNL1       -0.2689
     21 C         140.8585  145.7995  157.6687 C.3     1  UNL1        0.0741
     22 C         141.0584  145.1998  159.0290 C.3     1  UNL1        0.0369
     23 C         139.8571  145.6643  155.2752 C.3     1  UNL1        0.0992
     24 C         139.6448  147.1422  155.1308 C.ar    1  UNL1       -0.0039
     25 C         140.2662  147.8805  153.9825 C.ar    1  UNL1       -0.0028
     26 C         140.0539  149.3584  153.8381 C.ar    1  UNL1        0.0020
     27 C         139.2203  150.0979  154.8421 C.ar    1  UNL1        0.0296
     28 C         138.5989  149.3596  155.9905 C.ar    1  UNL1        0.1399
     29 F         137.7652  150.0991  156.9945 F       1  UNL1       -0.2042
     30 C         138.8112  147.8817  156.1348 C.ar    1  UNL1        0.0267
@<TRIPOS>BOND
     1     1     2    2
     2     2     3   am
     3     3    17    1
     4    17    18    1
     5    18    19    1
     6    19    20    1
     7    20    23    1
     8    23    24    1
     9    24    25   ar
    10    25    26   ar
    11    26    27   ar
    12    27    28   ar
    13    28    29    1
    14    28    30   ar
    15    20    21    1
    16    21    22    1
    17     2     5    1
    18     5     6   ar
    19     6     7   ar
    20     7     8    2
    21     7     9   ar
    22     9    10   ar
    23    10    11   ar
    24    11    12   ar
    25    12    13    1
    26    12    14   ar
    27    14    15   ar
    28    15    16   ar
    29    22    17    1
    30    16     5   ar
    31    30    24   ar
    32    15     9   ar
    33     3     4    1
@<TRIPOS>MOLECULE
*****
 30 33 0 0 0
SMALL
GASTEIGER

@<TRIPOS>ATOM
      1 O         142.0179  140.4289  163.3582 O.2     1  UNL1       -0.2668
      2 C         140.9387  139.4991  163.8280 C.2     1  UNL1        0.2806
      3 N         140.4143  138.4344  162.9106 N.am    1  UNL1       -0.2999
      4 H         139.7060  137.8241  163.2190 H       1  UNL1        0.1498
      5 C         140.3839  139.6339  165.2151 C.ar    1  UNL1        0.2014
      6 C         139.1153  138.9254  165.5876 C.ar    1  UNL1        0.0843
      7 C         138.5605  139.0601  166.9746 C.ar    1  UNL1        0.2018
      8 O         137.2919  138.3516  167.3471 O.2     1  UNL1       -0.2864
      9 C         139.2742  139.9034  167.9893 C.ar    1  UNL1        0.0737
     10 C         138.7194  140.0382  169.3764 C.ar    1  UNL1        0.0085
     11 C         139.4332  140.8814  170.3909 C.ar    1  UNL1        0.0299
     12 C         140.7018  141.5899  170.0185 C.ar    1  UNL1        0.1432
     13 F         141.4155  142.4332  171.0332 F       1  UNL1       -0.2041
     14 C         141.2566  141.4551  168.6314 C.ar    1  UNL1        0.0672
     15 C         140.5428  140.6119  167.6168 C.ar    1  UNL1        0.1508
     16 O         141.0977  140.4771  166.2297 O.2     1  UNL1       -0.4486
     17 C         140.9691  138.2996  161.5236 C.3     1  UNL1        0.0747
     18 C         140.1551  138.7423  160.3440 C.3     1  UNL1        0.0369
     19 C         140.7099  138.6075  158.9569 C.3     1  UNL1        0.0741
     20 N         142.0787  138.0299  158.7494 N.3     1  UNL1       -0.2689
     21 C         142.8926  137.5871  159.9290 C.3     1  UNL1        0.0741
     22 C         142.3377  137.7220  161.3161 C.3     1  UNL1        0.0369
     23 C         142.6334  137.8951  157.3623 C.3     1  UNL1        0.0992
     24 C         142.2682  136.7085  156.5205 C.ar    1  UNL1       -0.0039
     25 C         142.8815  135.3696  156.8054 C.ar    1  UNL1       -0.0028
     26 C         142.5162  134.1830  155.9636 C.ar    1  UNL1        0.0020
     27 C         141.5378  134.3353  154.8369 C.ar    1  UNL1        0.0296
     28 C         140.9245  135.6742  154.5521 C.ar    1  UNL1        0.1399
     29 F         139.9460  135.8266  153.4254 F       1  UNL1       -0.2042
     30 C         141.2897  136.8608  155.3939 C.ar    1  UNL1        0.0267
@<TRIPOS>BOND
     1     1     2    2
     2     2     3   am
     3     3    17    1
     4    17    18    1
     5    18    19    1
     6    19    20    1
     7    20    23    1
     8    23    24    1
     9    24    25   ar
    10    25    26   ar
    11    26    27   ar
    12    27    28   ar
    13    28    29    1
    14    28    30   ar
    15    20    21    1
    16    21    22    1
    17     2     5    1
    18     5     6   ar
    19     6     7   ar
    20     7     8    2
    21     7     9   ar
    22     9    10   ar
    23    10    11   ar
    24    11    12   ar
    25    12    13    1
    26    12    14   ar
    27    14    15   ar
    28    15    16   ar
    29    22    17    1
    30    16     5   ar
    31    30    24   ar
    32    15     9   ar
    33     3     4    1
@<TRIPOS>MOLECULE
*****
 30 33 0 0 0
SMALL
GASTEIGER

@<TRIPOS>ATOM
      1 O         142.2198  138.6664  160.8078 O.2     1  UNL1       -0.2668
      2 C         141.0571  138.4115  159.8951 C.2     1  UNL1        0.2806
      3 N         139.6558  138.5027  160.4222 N.am    1  UNL1       -0.2999
      4 H         138.8926  138.3354  159.8232 H       1  UNL1        0.1498
      5 C         141.2957  138.0653  158.4552 C.ar    1  UNL1        0.2014
      6 C         142.6957  138.0076  157.9198 C.ar    1  UNL1        0.0843
      7 C         142.9344  137.6615  156.4799 C.ar    1  UNL1        0.2018
      8 O         144.3344  137.6037  155.9445 O.2     1  UNL1       -0.2864
      9 C         141.7730  137.3731  155.5754 C.ar    1  UNL1        0.0737
     10 C         142.0116  137.0269  154.1355 C.ar    1  UNL1        0.0085
     11 C         140.8502  136.7386  153.2311 C.ar    1  UNL1        0.0299
     12 C         139.4502  136.7963  153.7665 C.ar    1  UNL1        0.1432
     13 F         138.2889  136.5079  152.8620 F       1  UNL1       -0.2041
     14 C         139.2116  137.1425  155.2064 C.ar    1  UNL1        0.0672
     15 C         140.3730  137.4308  156.1108 C.ar    1  UNL1        0.1508
     16 O         140.1344  137.7770  157.5507 O.2     1  UNL1       -0.4486
     17 C         139.4171  138.8488  161.8621 C.3     1  UNL1        0.0747
     18 C         139.1603  137.7610  162.8624 C.3     1  UNL1        0.0369
     19 C         138.9217  138.1071  164.3022 C.3     1  UNL1        0.0741
     20 N         138.9398  139.5412  164.7419 N.3     1  UNL1       -0.2689
     21 C         139.1966  140.6290  163.7416 C.3     1  UNL1        0.0741
     22 C         139.4353  140.2828  162.3016 C.3     1  UNL1        0.0369
     23 C         138.7012  139.8873  166.1817 C.3     1  UNL1        0.0992
     24 C         139.8404  139.8647  167.1573 C.ar    1  UNL1       -0.0039
     25 C         141.2465  139.6919  166.6645 C.ar    1  UNL1       -0.0028
     26 C         142.3857  139.6694  167.6400 C.ar    1  UNL1        0.0020
     27 C         142.1188  139.8196  169.1084 C.ar    1  UNL1        0.0296
     28 C         140.7127  139.9924  169.6012 C.ar    1  UNL1        0.1399
     29 F         140.4457  140.1427  171.0696 F       1  UNL1       -0.2042
     30 C         139.5735  140.0150  168.6256 C.ar    1  UNL1        0.0267
@<TRIPOS>BOND
     1     1     2    2
     2     2     3   am
     3     3    17    1
     4    17    18    1
     5    18    19    1
     6    19    20    1
     7    20    23    1
     8    23    24    1
     9    24    25   ar
    10    25    26   ar
    11    26    27   ar
    12    27    28   ar
    13    28    29    1
    14    28    30   ar
    15    20    21    1
    16    21    22    1
    17     2     5    1
    18     5     6   ar
    19     6     7   ar
    20     7     8    2
    21     7     9   ar
    22     9    10   ar
    23    10    11   ar
    24    11    12   ar
    25    12    13    1
    26    12    14   ar
    27    14    15   ar
    28    15    16   ar
    29    22    17    1
    30    16     5   ar
    31    30    24   ar
    32    15     9   ar
    33     3     4    1
@<TRIPOS>MOLECULE
*****
 30 33 0 0 0
SMALL
GASTEIGER

@<TRIPOS>ATOM
      1 O         137.1682  141.2997  162.7385 O.2     1  UNL1       -0.2668
      2 C         138.5509  140.9475  163.2012 C.2     1  UNL1        0.2806
      3 N         139.6576  140.7848  162.2018 N.am    1  UNL1       -0.2999
      4 H         140.5651  140.5537  162.5056 H       1  UNL1        0.1498
      5 C         138.8269  140.7578  164.6634 C.ar    1  UNL1        0.2014
      6 C         138.1658  139.6389  165.4125 C.ar    1  UNL1        0.0843
      7 C         138.4418  139.4492  166.8746 C.ar    1  UNL1        0.2018
      8 O         137.7807  138.3304  167.6236 O.2     1  UNL1       -0.2864
      9 C         139.3788  140.3785  167.5877 C.ar    1  UNL1        0.0737
     10 C         139.6548  140.1888  169.0498 C.ar    1  UNL1        0.0085
     11 C         140.5918  141.1180  169.7629 C.ar    1  UNL1        0.0299
     12 C         141.2529  142.2369  169.0138 C.ar    1  UNL1        0.1432
     13 F         142.1900  143.1661  169.7270 F       1  UNL1       -0.2041
     14 C         140.9769  142.4266  167.5517 C.ar    1  UNL1        0.0672
     15 C         140.0399  141.4974  166.8387 C.ar    1  UNL1        0.1508
     16 O         139.7639  141.6870  165.3765 O.2     1  UNL1       -0.4486
     17 C         139.3816  140.9745  160.7397 C.3     1  UNL1        0.0747
     18 C         139.2092  139.7807  159.8480 C.3     1  UNL1        0.0369
     19 C         138.9333  139.9703  158.3859 C.3     1  UNL1        0.0741
     20 N         138.8297  141.3538  157.8154 N.3     1  UNL1       -0.2689
     21 C         139.0022  142.5476  158.7071 C.3     1  UNL1        0.0741
     22 C         139.2781  142.3579  160.1693 C.3     1  UNL1        0.0369
     23 C         138.5538  141.5434  156.3533 C.3     1  UNL1        0.0992
     24 C         137.3200  140.9507  155.7398 C.ar    1  UNL1       -0.0039
     25 C         137.4251  140.1262  154.4912 C.ar    1  UNL1       -0.0028
     26 C         136.1912  139.5335  153.8777 C.ar    1  UNL1        0.0020
     27 C         134.8523  139.7652  154.5129 C.ar    1  UNL1        0.0296
     28 C         134.7472  140.5896  155.7616 C.ar    1  UNL1        0.1399
     29 F         133.4082  140.8214  156.3968 F       1  UNL1       -0.2042
     30 C         135.9810  141.1824  156.3750 C.ar    1  UNL1        0.0267
@<TRIPOS>BOND
     1     1     2    2
     2     2     3   am
     3     3    17    1
     4    17    18    1
     5    18    19    1
     6    19    20    1
     7    20    23    1
     8    23    24    1
     9    24    25   ar
    10    25    26   ar
    11    26    27   ar
    12    27    28   ar
    13    28    29    1
    14    28    30   ar
    15    20    21    1
    16    21    22    1
    17     2     5    1
    18     5     6   ar
    19     6     7   ar
    20     7     8    2
    21     7     9   ar
    22     9    10   ar
    23    10    11   ar
    24    11    12   ar
    25    12    13    1
    26    12    14   ar
    27    14    15   ar
    28    15    16   ar
    29    22    17    1
    30    16     5   ar
    31    30    24   ar
    32    15     9   ar
    33     3     4    1
@<TRIPOS>MOLECULE
*****
 30 33 0 0 0
SMALL
GASTEIGER

@<TRIPOS>ATOM
      1 O         140.8367  138.6794  158.7395 O.2     1  UNL1       -0.2668
      2 C         142.1543  138.1938  158.2123 C.2     1  UNL1        0.2806
      3 N         143.4229  138.8892  158.6086 N.am    1  UNL1       -0.2999
      4 H         144.2878  138.5705  158.2626 H       1  UNL1        0.1498
      5 C         142.2035  137.0127  157.2889 C.ar    1  UNL1        0.2014
      6 C         141.2952  136.9547  156.0965 C.ar    1  UNL1        0.0843
      7 C         141.3443  135.7737  155.1730 C.ar    1  UNL1        0.2018
      8 O         140.4361  135.7157  153.9807 O.2     1  UNL1       -0.2864
      9 C         142.3017  134.6507  155.4419 C.ar    1  UNL1        0.0737
     10 C         142.3508  133.4697  154.5185 C.ar    1  UNL1        0.0085
     11 C         143.3082  132.3467  154.7874 C.ar    1  UNL1        0.0299
     12 C         144.2164  132.4047  155.9797 C.ar    1  UNL1        0.1432
     13 F         145.1738  131.2817  156.2486 F       1  UNL1       -0.2041
     14 C         144.1673  133.5857  156.9032 C.ar    1  UNL1        0.0672
     15 C         143.2100  134.7087  156.6343 C.ar    1  UNL1        0.1508
     16 O         143.1608  135.8898  157.5578 O.2     1  UNL1       -0.4486
     17 C         143.3738  140.0703  159.5321 C.3     1  UNL1        0.0747
     18 C         143.4242  139.8639  161.0169 C.3     1  UNL1        0.0369
     19 C         143.3751  141.0449  161.9404 C.3     1  UNL1        0.0741
     20 N         143.2756  142.4324  161.3789 N.3     1  UNL1       -0.2689
     21 C         143.2253  142.6387  159.8940 C.3     1  UNL1        0.0741
     22 C         143.2744  141.4576  158.9706 C.3     1  UNL1        0.0369
     23 C         143.2266  143.6134  162.3024 C.3     1  UNL1        0.0992
     24 C         141.9361  143.9935  162.9658 C.ar    1  UNL1       -0.0039
     25 C         140.9512  144.8661  162.2458 C.ar    1  UNL1       -0.0028
     26 C         139.6607  145.2463  162.9093 C.ar    1  UNL1        0.0020
     27 C         139.3552  144.7539  164.2928 C.ar    1  UNL1        0.0296
     28 C         140.3401  143.8813  165.0128 C.ar    1  UNL1        0.1399
     29 F         140.0346  143.3888  166.3964 F       1  UNL1       -0.2042
     30 C         141.6305  143.5011  164.3493 C.ar    1  UNL1        0.0267
@<TRIPOS>BOND
     1     1     2    2
     2     2     3   am
     3     3    17    1
     4    17    18    1
     5    18    19    1
     6    19    20    1
     7    20    23    1
     8    23    24    1
     9    24    25   ar
    10    25    26   ar
    11    26    27   ar
    12    27    28   ar
    13    28    29    1
    14    28    30   ar
    15    20    21    1
    16    21    22    1
    17     2     5    1
    18     5     6   ar
    19     6     7   ar
    20     7     8    2
    21     7     9   ar
    22     9    10   ar
    23    10    11   ar
    24    11    12   ar
    25    12    13    1
    26    12    14   ar
    27    14    15   ar
    28    15    16   ar
    29    22    17    1
    30    16     5   ar
    31    30    24   ar
    32    15     9   ar
    33     3     4    1
@<TRIPOS>MOLECULE
*****
 30 33 0 0 0
SMALL
GASTEIGER

@<TRIPOS>ATOM
      1 O         141.2855  137.4544  161.3633 O.2     1  UNL1       -0.2668
      2 C         141.2638  138.9279  161.0836 C.2     1  UNL1        0.2806
      3 N         141.3382  139.4242  159.6701 N.am    1  UNL1       -0.2999
      4 H         141.3240  140.3913  159.4865 H       1  UNL1        0.1498
      5 C         141.1678  139.9052  162.2176 C.ar    1  UNL1        0.2014
      6 C         142.3037  140.0426  163.1875 C.ar    1  UNL1        0.0843
      7 C         142.2077  141.0198  164.3214 C.ar    1  UNL1        0.2018
      8 O         143.3437  141.1572  165.2913 O.2     1  UNL1       -0.2864
      9 C         140.9757  141.8597  164.4854 C.ar    1  UNL1        0.0737
     10 C         140.8797  142.8369  165.6193 C.ar    1  UNL1        0.0085
     11 C         139.6477  143.6767  165.7833 C.ar    1  UNL1        0.0299
     12 C         138.5118  143.5393  164.8134 C.ar    1  UNL1        0.1432
     13 F         137.2797  144.3791  164.9775 F       1  UNL1       -0.2041
     14 C         138.6078  142.5620  163.6795 C.ar    1  UNL1        0.0672
     15 C         139.8398  141.7222  163.5155 C.ar    1  UNL1        0.1508
     16 O         139.9358  140.7450  162.3816 O.2     1  UNL1       -0.4486
     17 C         141.4343  138.4470  158.5362 C.3     1  UNL1        0.0747
     18 C         142.7350  137.7575  158.2484 C.3     1  UNL1        0.0369
     19 C         142.8310  136.7803  157.1145 C.3     1  UNL1        0.0741
     20 N         141.6264  136.4925  156.2682 N.3     1  UNL1       -0.2689
     21 C         140.3257  137.1820  156.5560 C.3     1  UNL1        0.0741
     22 C         140.2297  138.1593  157.6900 C.3     1  UNL1        0.0369
     23 C         141.7224  135.5153  155.1343 C.3     1  UNL1        0.0992
     24 C         142.1756  134.1089  155.3926 C.ar    1  UNL1       -0.0039
     25 C         141.2059  132.9722  155.2599 C.ar    1  UNL1       -0.0028
     26 C         141.6591  131.5658  155.5182 C.ar    1  UNL1        0.0020
     27 C         143.0818  131.2961  155.9091 C.ar    1  UNL1        0.0296
     28 C         144.0515  132.4328  156.0418 C.ar    1  UNL1        0.1399
     29 F         145.4744  132.1632  156.4328 F       1  UNL1       -0.2042
     30 C         143.5984  133.8392  155.7836 C.ar    1  UNL1        0.0267
@<TRIPOS>BOND
     1     1     2    2
     2     2     3   am
     3     3    17    1
     4    17    18    1
     5    18    19    1
     6    19    20    1
     7    20    23    1
     8    23    24    1
     9    24    25   ar
    10    25    26   ar
    11    26    27   ar
    12    27    28   ar
    13    28    29    1
    14    28    30   ar
    15    20    21    1
    16    21    22    1
    17     2     5    1
    18     5     6   ar
    19     6     7   ar
    20     7     8    2
    21     7     9   ar
    22     9    10   ar
    23    10    11   ar
    24    11    12   ar
    25    12    13    1
    26    12    14   ar
    27    14    15   ar
    28    15    16   ar
    29    22    17    1
    30    16     5   ar
    31    30    24   ar
    32    15     9   ar
    33     3     4    1
