@<TRIPOS>MOLECULE
*****
 42 46 0 0 0
SMALL
GASTEIGER

@<TRIPOS>ATOM
      1 C         141.6113  139.3491  161.3441 C.ar    1  UNL1        0.0797
      2 C         142.6641  138.9678  160.3460 C.ar    1  UNL1        0.0396
      3 C         141.9733  138.4768  159.1083 C.ar    1  UNL1        0.1024
      4 N         140.4936  138.5546  159.3416 N.ar    1  UNL1       -0.1691
      5 N         140.2698  139.0937  160.7234 N.ar    1  UNL1       -0.2487
      6 C         142.8935  140.5780  167.9846 C.ar    1  UNL1        0.1387
      7 C         142.9477  139.0992  167.7395 C.ar    1  UNL1        0.0369
      8 C         142.7021  138.5577  166.3624 C.ar    1  UNL1        0.0031
      9 C         142.4023  139.4949  165.2304 C.ar    1  UNL1        0.0002
     10 C         142.1567  138.9534  163.8533 C.ar    1  UNL1        0.0015
     11 C         141.8569  139.8906  162.7212 C.ar    1  UNL1        0.0174
     12 C         141.8027  141.3696  162.9662 C.ar    1  UNL1        0.0015
     13 C         142.0482  141.9111  164.3433 C.ar    1  UNL1        0.0001
     14 C         142.3481  140.9738  165.4754 C.ar    1  UNL1        0.0030
     15 C         142.5936  141.5153  166.8525 C.ar    1  UNL1        0.0369
     16 C         143.7482  142.4793  169.5353 C.3     1  UNL1        0.2525
     17 O         143.1390  141.1196  169.3617 O.3     1  UNL1       -0.4714
     18 C         142.6443  137.9930  157.8571 C.ar    1  UNL1        0.0211
     19 C         142.7374  136.5224  157.5766 C.ar    1  UNL1        0.0130
     20 C         143.4085  136.0386  156.3254 C.ar    1  UNL1        0.0586
     21 CL        143.5016  134.5679  156.0448 Cl      1  UNL1       -0.0822
     22 C         143.9864  137.0254  155.3546 C.ar    1  UNL1        0.0228
     23 C         143.8933  138.4960  155.6352 C.ar    1  UNL1        0.0586
     24 CL        144.4712  139.4827  154.6644 Cl      1  UNL1       -0.0822
     25 C         143.2222  138.9797  156.8864 C.ar    1  UNL1        0.0130
     26 C         138.9385  139.3350  161.3708 C.3     1  UNL1        0.1274
     27 C         137.7303  139.6043  160.5235 C.3     1  UNL1        0.0312
     28 C         138.8152  139.3072  162.8654 C.ar    1  UNL1       -0.0001
     29 C         138.5430  140.5753  163.6192 C.ar    1  UNL1       -0.0023
     30 C         138.4196  140.5476  165.1138 C.ar    1  UNL1        0.0042
     31 C         138.5684  139.2518  165.8547 C.ar    1  UNL1        0.0533
     32 C         138.8405  137.9838  165.1010 C.ar    1  UNL1        0.0042
     33 C         138.9639  138.0115  163.6064 C.ar    1  UNL1       -0.0023
     34 C         138.4450  139.2241  167.3494 C.2     1  UNL1        0.2459
     35 O         137.3437  138.4376  167.9966 O.2     1  UNL1       -0.2701
     36 N         139.4229  139.9828  168.1969 N.am    1  UNL1       -0.3005
     37 H         140.1457  140.4989  167.7721 H       1  UNL1        0.1498
     38 C         139.2995  139.9551  169.6915 C.3     1  UNL1        0.0956
     39 C         139.9816  141.0032  170.5199 C.3     1  UNL1        0.0629
     40 C         139.8233  142.4539  170.1728 C.2     1  UNL1        0.0520
     41 O         139.2227  143.4020  171.1679 O.co2   1  UNL1       -0.5491
     42 O         140.2658  142.9565  168.8306 O.co2   1  UNL1       -0.5491
@<TRIPOS>UNITY_ATOM_ATTR
41 1
charge -1
@<TRIPOS>BOND
     1    16    17    1
     2    17     6    1
     3     6     7   ar
     4     7     8   ar
     5     8     9   ar
     6     9    10   ar
     7    10    11   ar
     8    11     1    1
     9     1     2   ar
    10     2     3   ar
    11     3    18    1
    12    18    19   ar
    13    19    20   ar
    14    20    21    1
    15    20    22   ar
    16    22    23   ar
    17    23    24    1
    18    23    25   ar
    19     3     4   ar
    20     4     5   ar
    21     5    26    1
    22    26    27    1
    23    26    28    1
    24    28    29   ar
    25    29    30   ar
    26    30    31   ar
    27    31    34    1
    28    34    35    2
    29    34    36   am
    30    36    38    1
    31    38    39    1
    32    39    40    1
    33    40    41   ar
    34    40    42   ar
    35    31    32   ar
    36    32    33   ar
    37    11    12   ar
    38    12    13   ar
    39    13    14   ar
    40    14    15   ar
    41    15     6   ar
    42    14     9   ar
    43     5     1   ar
    44    33    28   ar
    45    25    18   ar
    46    36    37    1
@<TRIPOS>MOLECULE
*****
 42 46 0 0 0
SMALL
GASTEIGER

@<TRIPOS>ATOM
      1 C         141.6166  138.8247  160.5575 C.ar    1  UNL1        0.0797
      2 C         142.5277  138.1762  159.5578 C.ar    1  UNL1        0.0396
      3 C         141.7127  137.8216  158.3495 C.ar    1  UNL1        0.1024
      4 N         140.2979  138.2509  158.6024 N.ar    1  UNL1       -0.1691
      5 N         140.2384  138.8709  159.9670 N.ar    1  UNL1       -0.2487
      6 C         143.3991  142.3456  166.1857 C.ar    1  UNL1        0.1387
      7 C         143.1953  143.3047  165.0505 C.ar    1  UNL1        0.0369
      8 C         142.7981  142.7923  163.6979 C.ar    1  UNL1        0.0031
      9 C         142.6046  141.3209  163.4803 C.ar    1  UNL1        0.0002
     10 C         142.2073  140.8085  162.1277 C.ar    1  UNL1        0.0015
     11 C         142.0139  139.3371  161.9102 C.ar    1  UNL1        0.0174
     12 C         142.2177  138.3779  163.0453 C.ar    1  UNL1        0.0015
     13 C         142.6149  138.8902  164.3980 C.ar    1  UNL1        0.0001
     14 C         142.8084  140.3618  164.6155 C.ar    1  UNL1        0.0030
     15 C         143.2057  140.8741  165.9681 C.ar    1  UNL1        0.0369
     16 C         143.1515  142.2981  168.7714 C.3     1  UNL1        0.2525
     17 O         143.7964  142.8579  167.5383 O.3     1  UNL1       -0.4714
     18 C         142.2228  137.1547  157.1066 C.ar    1  UNL1        0.0211
     19 C         142.8650  135.8018  157.1909 C.ar    1  UNL1        0.0130
     20 C         143.3751  135.1350  155.9479 C.ar    1  UNL1        0.0586
     21 CL        144.0174  133.7820  156.0322 Cl      1  UNL1       -0.0822
     22 C         143.2431  135.8211  154.6205 C.ar    1  UNL1        0.0228
     23 C         142.6009  137.1741  154.5362 C.ar    1  UNL1        0.0586
     24 CL        142.4689  137.8602  153.2089 Cl      1  UNL1       -0.0822
     25 C         142.0908  137.8409  155.7792 C.ar    1  UNL1        0.0130
     26 C         139.0157  139.4375  160.6255 C.3     1  UNL1        0.1274
     27 C         137.9704  140.1271  159.7996 C.3     1  UNL1        0.0312
     28 C         138.8380  139.3147  162.1099 C.ar    1  UNL1       -0.0001
     29 C         138.7841  137.9587  162.7490 C.ar    1  UNL1       -0.0023
     30 C         138.6064  137.8358  164.2334 C.ar    1  UNL1        0.0042
     31 C         138.4826  139.0689  165.0786 C.ar    1  UNL1        0.0533
     32 C         138.5365  140.4248  164.4394 C.ar    1  UNL1        0.0042
     33 C         138.7142  140.5477  162.9551 C.ar    1  UNL1       -0.0023
     34 C         138.3049  138.9459  166.5629 C.2     1  UNL1        0.2459
     35 O         137.3876  137.9002  167.1244 O.2     1  UNL1       -0.2701
     36 N         139.0445  139.8686  167.4858 N.am    1  UNL1       -0.3005
     37 H         139.6465  140.5549  167.1173 H       1  UNL1        0.1498
     38 C         138.8668  139.7457  168.9701 C.3     1  UNL1        0.0956
     39 C         139.3301  140.8488  169.8749 C.3     1  UNL1        0.0629
     40 C         140.5232  140.6415  170.7600 C.2     1  UNL1        0.0520
     41 O         140.6888  141.4672  172.0013 O.co2   1  UNL1       -0.5491
     42 O         141.5509  139.6085  170.4038 O.co2   1  UNL1       -0.5491
@<TRIPOS>UNITY_ATOM_ATTR
41 1
charge -1
@<TRIPOS>BOND
     1    16    17    1
     2    17     6    1
     3     6     7   ar
     4     7     8   ar
     5     8     9   ar
     6     9    10   ar
     7    10    11   ar
     8    11     1    1
     9     1     2   ar
    10     2     3   ar
    11     3    18    1
    12    18    19   ar
    13    19    20   ar
    14    20    21    1
    15    20    22   ar
    16    22    23   ar
    17    23    24    1
    18    23    25   ar
    19     3     4   ar
    20     4     5   ar
    21     5    26    1
    22    26    27    1
    23    26    28    1
    24    28    29   ar
    25    29    30   ar
    26    30    31   ar
    27    31    34    1
    28    34    35    2
    29    34    36   am
    30    36    38    1
    31    38    39    1
    32    39    40    1
    33    40    41   ar
    34    40    42   ar
    35    31    32   ar
    36    32    33   ar
    37    11    12   ar
    38    12    13   ar
    39    13    14   ar
    40    14    15   ar
    41    15     6   ar
    42    14     9   ar
    43     5     1   ar
    44    33    28   ar
    45    25    18   ar
    46    36    37    1
@<TRIPOS>MOLECULE
*****
 42 46 0 0 0
SMALL
GASTEIGER

@<TRIPOS>ATOM
      1 C         141.4424  142.1018  160.8544 C.ar    1  UNL1        0.0797
      2 C         140.7447  142.7166  159.6774 C.ar    1  UNL1        0.0396
      3 C         141.6682  143.7295  159.0682 C.ar    1  UNL1        0.1024
      4 N         142.9367  143.7407  159.8687 N.ar    1  UNL1       -0.1691
      5 N         142.7972  142.7347  160.9726 N.ar    1  UNL1       -0.2487
      6 C         138.3546  138.2404  165.6299 C.ar    1  UNL1        0.1387
      7 C         138.0614  139.6859  165.9024 C.ar    1  UNL1        0.0369
      8 C         138.6203  140.7473  165.0018 C.ar    1  UNL1        0.0031
      9 C         139.4724  140.3632  163.8287 C.ar    1  UNL1        0.0002
     10 C         140.0314  141.4245  162.9281 C.ar    1  UNL1        0.0015
     11 C         140.8834  141.0404  161.7550 C.ar    1  UNL1        0.0174
     12 C         141.1767  139.5947  161.4824 C.ar    1  UNL1        0.0015
     13 C         140.6177  138.5333  162.3830 C.ar    1  UNL1        0.0001
     14 C         139.7656  138.9176  163.5561 C.ar    1  UNL1        0.0030
     15 C         139.2067  137.8562  164.4567 C.ar    1  UNL1        0.0369
     16 C         136.9279  137.5620  167.6924 C.3     1  UNL1        0.2525
     17 O         137.7957  137.1790  166.5305 O.3     1  UNL1       -0.4714
     18 C         141.3748  144.5816  157.8692 C.ar    1  UNL1        0.0211
     19 C         142.1526  144.3859  156.6016 C.ar    1  UNL1        0.0130
     20 C         141.8592  145.2381  155.4026 C.ar    1  UNL1        0.0586
     21 CL        142.6370  145.0425  154.1349 Cl      1  UNL1       -0.0822
     22 C         140.7879  146.2858  155.4711 C.ar    1  UNL1        0.0228
     23 C         140.0102  146.4815  156.7387 C.ar    1  UNL1        0.0586
     24 CL        138.9389  147.5293  156.8072 Cl      1  UNL1       -0.0822
     25 C         140.3036  145.6293  157.9377 C.ar    1  UNL1        0.0130
     26 C         143.8309  142.4174  162.0122 C.3     1  UNL1        0.1274
     27 C         145.2852  142.6317  161.7137 C.3     1  UNL1        0.0312
     28 C         143.4104  141.8858  163.3503 C.ar    1  UNL1       -0.0001
     29 C         143.6122  140.4360  163.6784 C.ar    1  UNL1       -0.0023
     30 C         143.1918  139.9042  165.0164 C.ar    1  UNL1        0.0042
     31 C         142.5695  140.8223  166.0265 C.ar    1  UNL1        0.0533
     32 C         142.3677  142.2720  165.6984 C.ar    1  UNL1        0.0042
     33 C         142.7882  142.8037  164.3604 C.ar    1  UNL1       -0.0023
     34 C         142.1491  140.2905  167.3645 C.2     1  UNL1        0.2459
     35 O         143.1208  139.5120  168.2012 O.2     1  UNL1       -0.2701
     36 N         140.7571  140.5373  167.8660 N.am    1  UNL1       -0.3005
     37 H         140.1194  141.0482  167.3169 H       1  UNL1        0.1498
     38 C         140.3367  140.0055  169.2041 C.3     1  UNL1        0.0956
     39 C         140.9897  140.5178  170.4536 C.3     1  UNL1        0.0629
     40 C         140.8362  141.9580  170.8437 C.2     1  UNL1        0.0520
     41 O         140.5541  142.3224  172.2711 O.co2   1  UNL1       -0.5491
     42 O         140.9648  143.0339  169.8064 O.co2   1  UNL1       -0.5491
@<TRIPOS>UNITY_ATOM_ATTR
41 1
charge -1
@<TRIPOS>BOND
     1    16    17    1
     2    17     6    1
     3     6     7   ar
     4     7     8   ar
     5     8     9   ar
     6     9    10   ar
     7    10    11   ar
     8    11     1    1
     9     1     2   ar
    10     2     3   ar
    11     3    18    1
    12    18    19   ar
    13    19    20   ar
    14    20    21    1
    15    20    22   ar
    16    22    23   ar
    17    23    24    1
    18    23    25   ar
    19     3     4   ar
    20     4     5   ar
    21     5    26    1
    22    26    27    1
    23    26    28    1
    24    28    29   ar
    25    29    30   ar
    26    30    31   ar
    27    31    34    1
    28    34    35    2
    29    34    36   am
    30    36    38    1
    31    38    39    1
    32    39    40    1
    33    40    41   ar
    34    40    42   ar
    35    31    32   ar
    36    32    33   ar
    37    11    12   ar
    38    12    13   ar
    39    13    14   ar
    40    14    15   ar
    41    15     6   ar
    42    14     9   ar
    43     5     1   ar
    44    33    28   ar
    45    25    18   ar
    46    36    37    1
@<TRIPOS>MOLECULE
*****
 42 46 0 0 0
SMALL
GASTEIGER

@<TRIPOS>ATOM
      1 C         141.1265  143.0441  160.4423 C.ar    1  UNL1        0.0797
      2 C         140.3755  143.7157  159.3310 C.ar    1  UNL1        0.0396
      3 C         141.3745  144.3867  158.4356 C.ar    1  UNL1        0.1024
      4 N         142.7430  144.1298  158.9935 N.ar    1  UNL1       -0.1691
      5 N         142.5898  143.3000  160.2337 N.ar    1  UNL1       -0.2487
      6 C         138.6949  138.3891  164.8772 C.ar    1  UNL1        0.1387
      7 C         139.2923  137.6792  163.6986 C.ar    1  UNL1        0.0369
      8 C         139.8981  138.4682  162.5759 C.ar    1  UNL1        0.0031
      9 C         139.9065  139.9671  162.6318 C.ar    1  UNL1        0.0002
     10 C         140.5123  140.7562  161.5091 C.ar    1  UNL1        0.0015
     11 C         140.5207  142.2551  161.5650 C.ar    1  UNL1        0.0174
     12 C         139.9233  142.9650  162.7436 C.ar    1  UNL1        0.0015
     13 C         139.3175  142.1760  163.8663 C.ar    1  UNL1        0.0001
     14 C         139.3091  140.6770  163.8104 C.ar    1  UNL1        0.0030
     15 C         138.7033  139.8880  164.9331 C.ar    1  UNL1        0.0369
     16 C         137.4979  138.3098  167.1817 C.3     1  UNL1        0.2525
     17 O         138.0891  137.6001  165.9999 O.3     1  UNL1       -0.4714
     18 C         141.0602  145.1760  157.1995 C.ar    1  UNL1        0.0211
     19 C         140.0377  146.2723  157.2494 C.ar    1  UNL1        0.0130
     20 C         139.7235  147.0616  156.0131 C.ar    1  UNL1        0.0586
     21 CL        138.7009  148.1580  156.0630 Cl      1  UNL1       -0.0822
     22 C         140.4319  146.7547  154.7270 C.ar    1  UNL1        0.0228
     23 C         141.4544  145.6584  154.6772 C.ar    1  UNL1        0.0586
     24 CL        142.1628  145.3514  153.3911 Cl      1  UNL1       -0.0822
     25 C         141.7686  144.8691  155.9134 C.ar    1  UNL1        0.0130
     26 C         143.7040  142.8118  161.1111 C.3     1  UNL1        0.1274
     27 C         145.0540  142.5288  160.5215 C.3     1  UNL1        0.0312
     28 C         143.4686  142.6067  162.5782 C.ar    1  UNL1       -0.0001
     29 C         143.4535  141.2193  163.1485 C.ar    1  UNL1       -0.0023
     30 C         143.2180  141.0141  164.6157 C.ar    1  UNL1        0.0042
     31 C         142.9977  142.1961  165.5125 C.ar    1  UNL1        0.0533
     32 C         143.0128  143.5834  164.9422 C.ar    1  UNL1        0.0042
     33 C         143.2482  143.7887  163.4751 C.ar    1  UNL1       -0.0023
     34 C         142.7622  141.9909  166.9796 C.2     1  UNL1        0.2459
     35 O         143.5428  142.7870  167.9831 O.2     1  UNL1       -0.2701
     36 N         141.7462  140.9895  167.4432 N.am    1  UNL1       -0.3005
     37 H         141.2339  140.4670  166.7846 H       1  UNL1        0.1498
     38 C         141.5108  140.7842  168.9103 C.3     1  UNL1        0.0956
     39 C         140.3114  141.3972  169.5704 C.3     1  UNL1        0.0629
     40 C         140.4799  142.2341  170.8038 C.2     1  UNL1        0.0520
     41 O         139.4329  143.2418  171.1753 O.co2   1  UNL1       -0.5491
     42 O         141.6956  142.0632  171.6657 O.co2   1  UNL1       -0.5491
@<TRIPOS>UNITY_ATOM_ATTR
41 1
charge -1
@<TRIPOS>BOND
     1    16    17    1
     2    17     6    1
     3     6     7   ar
     4     7     8   ar
     5     8     9   ar
     6     9    10   ar
     7    10    11   ar
     8    11     1    1
     9     1     2   ar
    10     2     3   ar
    11     3    18    1
    12    18    19   ar
    13    19    20   ar
    14    20    21    1
    15    20    22   ar
    16    22    23   ar
    17    23    24    1
    18    23    25   ar
    19     3     4   ar
    20     4     5   ar
    21     5    26    1
    22    26    27    1
    23    26    28    1
    24    28    29   ar
    25    29    30   ar
    26    30    31   ar
    27    31    34    1
    28    34    35    2
    29    34    36   am
    30    36    38    1
    31    38    39    1
    32    39    40    1
    33    40    41   ar
    34    40    42   ar
    35    31    32   ar
    36    32    33   ar
    37    11    12   ar
    38    12    13   ar
    39    13    14   ar
    40    14    15   ar
    41    15     6   ar
    42    14     9   ar
    43     5     1   ar
    44    33    28   ar
    45    25    18   ar
    46    36    37    1
@<TRIPOS>MOLECULE
*****
 42 46 0 0 0
SMALL
GASTEIGER

@<TRIPOS>ATOM
      1 C         142.2827  137.9457  158.0023 C.ar    1  UNL1        0.0797
      2 C         142.9765  136.7584  157.4030 C.ar    1  UNL1        0.0396
      3 C         142.0151  136.0808  156.4721 C.ar    1  UNL1        0.1024
      4 N         140.7271  136.8492  156.4960 N.ar    1  UNL1       -0.1691
      5 N         140.8925  138.0019  157.4417 N.ar    1  UNL1       -0.2487
      6 C         144.8576  141.3754  163.3741 C.ar    1  UNL1        0.1387
      7 C         144.4705  139.9944  163.8131 C.ar    1  UNL1        0.0369
      8 C         143.8781  139.0322  162.8265 C.ar    1  UNL1        0.0031
      9 C         143.6728  139.4511  161.4010 C.ar    1  UNL1        0.0002
     10 C         143.0804  138.4889  160.4144 C.ar    1  UNL1        0.0015
     11 C         142.8751  138.9078  158.9888 C.ar    1  UNL1        0.0174
     12 C         143.2622  140.2890  158.5497 C.ar    1  UNL1        0.0015
     13 C         143.8546  141.2511  159.5363 C.ar    1  UNL1        0.0001
     14 C         144.0599  140.8322  160.9619 C.ar    1  UNL1        0.0030
     15 C         144.6523  141.7943  161.9485 C.ar    1  UNL1        0.0369
     16 C         144.5598  143.2754  165.1209 C.3     1  UNL1        0.2525
     17 O         145.4500  142.3376  164.3606 O.3     1  UNL1       -0.4714
     18 C         142.2928  134.8507  155.6600 C.ar    1  UNL1        0.0211
     19 C         143.2980  133.8461  156.1400 C.ar    1  UNL1        0.0130
     20 C         143.5757  132.6160  155.3277 C.ar    1  UNL1        0.0586
     21 CL        144.5810  131.6114  155.8078 Cl      1  UNL1       -0.0822
     22 C         142.8482  132.3905  154.0355 C.ar    1  UNL1        0.0228
     23 C         141.8431  133.3951  153.5554 C.ar    1  UNL1        0.0586
     24 CL        141.1156  133.1696  152.2632 Cl      1  UNL1       -0.0822
     25 C         141.5654  134.6252  154.3677 C.ar    1  UNL1        0.0130
     26 C         139.8507  139.0300  157.7692 C.3     1  UNL1        0.1274
     27 C         139.0329  139.6451  156.6723 C.3     1  UNL1        0.0312
     28 C         139.6264  139.4433  159.1936 C.ar    1  UNL1       -0.0001
     29 C         139.7822  140.8815  159.5906 C.ar    1  UNL1       -0.0023
     30 C         139.5580  141.2949  161.0149 C.ar    1  UNL1        0.0042
     31 C         139.1780  140.2701  162.0423 C.ar    1  UNL1        0.0533
     32 C         139.0223  138.8320  161.6454 C.ar    1  UNL1        0.0042
     33 C         139.2465  138.4186  160.2211 C.ar    1  UNL1       -0.0023
     34 C         138.9538  140.6835  163.4667 C.2     1  UNL1        0.2459
     35 O         137.8633  141.6574  163.8022 O.2     1  UNL1       -0.2701
     36 N         139.8200  140.1230  164.5556 N.am    1  UNL1       -0.3005
     37 H         140.5356  139.4838  164.3353 H       1  UNL1        0.1498
     38 C         139.5957  140.5364  165.9799 C.3     1  UNL1        0.0956
     39 C         139.0625  139.5468  166.9730 C.3     1  UNL1        0.0629
     40 C         138.2101  138.4033  166.5087 C.2     1  UNL1        0.0520
     41 O         137.0333  137.9638  167.3284 O.co2   1  UNL1       -0.5491
     42 O         138.5344  137.6992  165.2245 O.co2   1  UNL1       -0.5491
@<TRIPOS>UNITY_ATOM_ATTR
41 1
charge -1
@<TRIPOS>BOND
     1    16    17    1
     2    17     6    1
     3     6     7   ar
     4     7     8   ar
     5     8     9   ar
     6     9    10   ar
     7    10    11   ar
     8    11     1    1
     9     1     2   ar
    10     2     3   ar
    11     3    18    1
    12    18    19   ar
    13    19    20   ar
    14    20    21    1
    15    20    22   ar
    16    22    23   ar
    17    23    24    1
    18    23    25   ar
    19     3     4   ar
    20     4     5   ar
    21     5    26    1
    22    26    27    1
    23    26    28    1
    24    28    29   ar
    25    29    30   ar
    26    30    31   ar
    27    31    34    1
    28    34    35    2
    29    34    36   am
    30    36    38    1
    31    38    39    1
    32    39    40    1
    33    40    41   ar
    34    40    42   ar
    35    31    32   ar
    36    32    33   ar
    37    11    12   ar
    38    12    13   ar
    39    13    14   ar
    40    14    15   ar
    41    15     6   ar
    42    14     9   ar
    43     5     1   ar
    44    33    28   ar
    45    25    18   ar
    46    36    37    1
@<TRIPOS>MOLECULE
*****
 42 46 0 0 0
SMALL
GASTEIGER

@<TRIPOS>ATOM
      1 C         142.3475  137.5389  158.3963 C.ar    1  UNL1        0.0797
      2 C         142.9614  136.3098  157.7943 C.ar    1  UNL1        0.0396
      3 C         142.1339  135.9115  156.6083 C.ar    1  UNL1        0.1024
      4 N         141.0084  136.8945  156.4774 N.ar    1  UNL1       -0.1691
      5 N         141.1404  137.9003  157.5824 N.ar    1  UNL1       -0.2487
      6 C         144.8944  141.8877  163.0709 C.ar    1  UNL1        0.1387
      7 C         144.9189  142.5458  161.7232 C.ar    1  UNL1        0.0369
      8 C         144.4144  141.8077  160.5188 C.ar    1  UNL1        0.0031
      9 C         143.8854  140.4114  160.6620 C.ar    1  UNL1        0.0002
     10 C         143.3810  139.6733  159.4575 C.ar    1  UNL1        0.0015
     11 C         142.8520  138.2770  159.6008 C.ar    1  UNL1        0.0174
     12 C         142.8274  137.6188  160.9485 C.ar    1  UNL1        0.0015
     13 C         143.3319  138.3569  162.1529 C.ar    1  UNL1        0.0001
     14 C         143.8609  139.7533  162.0096 C.ar    1  UNL1        0.0030
     15 C         144.3654  140.4914  163.2141 C.ar    1  UNL1        0.0369
     16 C         144.4358  143.3481  165.1701 C.3     1  UNL1        0.2525
     17 O         145.3989  142.6258  164.2753 O.3     1  UNL1       -0.4714
     18 C         142.3872  134.7367  155.7109 C.ar    1  UNL1        0.0211
     19 C         141.6768  134.6319  154.3940 C.ar    1  UNL1        0.0130
     20 C         141.9303  133.4570  153.4966 C.ar    1  UNL1        0.0586
     21 CL        141.2198  133.3521  152.1796 Cl      1  UNL1       -0.0822
     22 C         142.8940  132.3868  153.9161 C.ar    1  UNL1        0.0228
     23 C         143.6044  132.4917  155.2331 C.ar    1  UNL1        0.0586
     24 CL        144.5682  131.4216  155.6526 Cl      1  UNL1       -0.0822
     25 C         143.3510  133.6666  156.1305 C.ar    1  UNL1        0.0130
     26 C         140.2259  139.0631  157.8300 C.3     1  UNL1        0.1274
     27 C         139.6461  139.8211  156.6726 C.3     1  UNL1        0.0312
     28 C         139.8912  139.4683  159.2349 C.ar    1  UNL1       -0.0001
     29 C         139.3129  138.4640  160.1874 C.ar    1  UNL1       -0.0023
     30 C         138.9782  138.8690  161.5924 C.ar    1  UNL1        0.0042
     31 C         139.2216  140.2783  162.0448 C.ar    1  UNL1        0.0533
     32 C         139.7998  141.2825  161.0924 C.ar    1  UNL1        0.0042
     33 C         140.1346  140.8775  159.6874 C.ar    1  UNL1       -0.0023
     34 C         138.8868  140.6833  163.4497 C.2     1  UNL1        0.2459
     35 O         137.8034  141.6896  163.7023 O.2     1  UNL1       -0.2701
     36 N         139.6354  140.0821  164.6022 N.am    1  UNL1       -0.3005
     37 H         140.3465  139.4217  164.4365 H       1  UNL1        0.1498
     38 C         139.3006  140.4871  166.0071 C.3     1  UNL1        0.0956
     39 C         138.8619  139.4532  167.0014 C.3     1  UNL1        0.0629
     40 C         138.0983  138.2468  166.5415 C.2     1  UNL1        0.0520
     41 O         136.9389  137.7409  167.3475 O.co2   1  UNL1       -0.5491
     42 O         138.4940  137.5464  165.2755 O.co2   1  UNL1       -0.5491
@<TRIPOS>UNITY_ATOM_ATTR
41 1
charge -1
@<TRIPOS>BOND
     1    16    17    1
     2    17     6    1
     3     6     7   ar
     4     7     8   ar
     5     8     9   ar
     6     9    10   ar
     7    10    11   ar
     8    11     1    1
     9     1     2   ar
    10     2     3   ar
    11     3    18    1
    12    18    19   ar
    13    19    20   ar
    14    20    21    1
    15    20    22   ar
    16    22    23   ar
    17    23    24    1
    18    23    25   ar
    19     3     4   ar
    20     4     5   ar
    21     5    26    1
    22    26    27    1
    23    26    28    1
    24    28    29   ar
    25    29    30   ar
    26    30    31   ar
    27    31    34    1
    28    34    35    2
    29    34    36   am
    30    36    38    1
    31    38    39    1
    32    39    40    1
    33    40    41   ar
    34    40    42   ar
    35    31    32   ar
    36    32    33   ar
    37    11    12   ar
    38    12    13   ar
    39    13    14   ar
    40    14    15   ar
    41    15     6   ar
    42    14     9   ar
    43     5     1   ar
    44    33    28   ar
    45    25    18   ar
    46    36    37    1
@<TRIPOS>MOLECULE
*****
 42 46 0 0 0
SMALL
GASTEIGER

@<TRIPOS>ATOM
      1 C         141.2510  141.5295  163.7123 C.ar    1  UNL1        0.0797
      2 C         141.6544  142.3658  164.8904 C.ar    1  UNL1        0.0396
      3 C         141.3803  141.5755  166.1355 C.ar    1  UNL1        0.1024
      4 N         140.8075  140.2508  165.7270 N.ar    1  UNL1       -0.1691
      5 N         140.7275  140.2222  164.2294 N.ar    1  UNL1       -0.2487
      6 C         142.9365  142.9045  157.1917 C.ar    1  UNL1        0.1387
      7 C         144.1118  142.2770  157.8808 C.ar    1  UNL1        0.0369
      8 C         144.0097  141.8766  159.3228 C.ar    1  UNL1        0.0031
      9 C         142.7324  142.1035  160.0756 C.ar    1  UNL1        0.0002
     10 C         142.6303  141.7030  161.5175 C.ar    1  UNL1        0.0015
     11 C         141.3530  141.9300  162.2704 C.ar    1  UNL1        0.0174
     12 C         140.1776  142.5574  161.5813 C.ar    1  UNL1        0.0015
     13 C         140.2796  142.9579  160.1393 C.ar    1  UNL1        0.0001
     14 C         141.5571  142.7310  159.3865 C.ar    1  UNL1        0.0030
     15 C         141.6591  143.1315  157.9446 C.ar    1  UNL1        0.0369
     16 C         144.3502  143.1920  155.0310 C.3     1  UNL1        0.2525
     17 O         143.0385  143.3050  155.7498 O.3     1  UNL1       -0.4714
     18 C         141.6345  142.0301  167.5421 C.ar    1  UNL1        0.0211
     19 C         143.0411  142.1499  168.0491 C.ar    1  UNL1        0.0130
     20 C         143.2951  142.6045  169.4558 C.ar    1  UNL1        0.0586
     21 CL        144.7018  142.7243  169.9628 Cl      1  UNL1       -0.0822
     22 C         142.1425  142.9394  170.3555 C.ar    1  UNL1        0.0228
     23 C         140.7359  142.8197  169.8485 C.ar    1  UNL1        0.0586
     24 CL        139.5834  143.1545  170.7482 Cl      1  UNL1       -0.0822
     25 C         140.4819  142.3650  168.4418 C.ar    1  UNL1        0.0130
     26 C         140.2143  139.0861  163.3954 C.3     1  UNL1        0.1274
     27 C         139.0450  138.2753  163.8704 C.3     1  UNL1        0.0312
     28 C         140.8701  138.7606  162.0862 C.ar    1  UNL1       -0.0001
     29 C         140.1463  139.0238  160.7989 C.ar    1  UNL1       -0.0023
     30 C         140.8021  138.6984  159.4897 C.ar    1  UNL1        0.0042
     31 C         142.1816  138.1097  159.4677 C.ar    1  UNL1        0.0533
     32 C         142.9054  137.8465  160.7549 C.ar    1  UNL1        0.0042
     33 C         142.2496  138.1720  162.0642 C.ar    1  UNL1       -0.0023
     34 C         142.8373  137.7842  158.1585 C.2     1  UNL1        0.2459
     35 O         143.6497  138.8256  157.4472 O.2     1  UNL1       -0.2701
     36 N         142.6807  136.4175  157.5605 N.am    1  UNL1       -0.3005
     37 H         142.1475  135.7341  158.0273 H       1  UNL1        0.1498
     38 C         143.3364  136.0921  156.2513 C.3     1  UNL1        0.0956
     39 C         143.5532  134.6614  155.8562 C.3     1  UNL1        0.0629
     40 C         143.3894  133.5698  156.8719 C.2     1  UNL1        0.0520
     41 O         144.2208  133.5760  158.1203 O.co2   1  UNL1       -0.5491
     42 O         142.3942  132.4719  156.6391 O.co2   1  UNL1       -0.5491
@<TRIPOS>UNITY_ATOM_ATTR
41 1
charge -1
@<TRIPOS>BOND
     1    16    17    1
     2    17     6    1
     3     6     7   ar
     4     7     8   ar
     5     8     9   ar
     6     9    10   ar
     7    10    11   ar
     8    11     1    1
     9     1     2   ar
    10     2     3   ar
    11     3    18    1
    12    18    19   ar
    13    19    20   ar
    14    20    21    1
    15    20    22   ar
    16    22    23   ar
    17    23    24    1
    18    23    25   ar
    19     3     4   ar
    20     4     5   ar
    21     5    26    1
    22    26    27    1
    23    26    28    1
    24    28    29   ar
    25    29    30   ar
    26    30    31   ar
    27    31    34    1
    28    34    35    2
    29    34    36   am
    30    36    38    1
    31    38    39    1
    32    39    40    1
    33    40    41   ar
    34    40    42   ar
    35    31    32   ar
    36    32    33   ar
    37    11    12   ar
    38    12    13   ar
    39    13    14   ar
    40    14    15   ar
    41    15     6   ar
    42    14     9   ar
    43     5     1   ar
    44    33    28   ar
    45    25    18   ar
    46    36    37    1
@<TRIPOS>MOLECULE
*****
 42 46 0 0 0
SMALL
GASTEIGER

@<TRIPOS>ATOM
      1 C         142.3554  137.5946  157.7048 C.ar    1  UNL1        0.0797
      2 C         143.0610  136.3678  157.2076 C.ar    1  UNL1        0.0396
      3 C         142.1425  135.6577  156.2577 C.ar    1  UNL1        0.1024
      4 N         140.8693  136.4457  156.1678 N.ar    1  UNL1       -0.1691
      5 N         141.0008  137.6428  157.0621 N.ar    1  UNL1       -0.2487
      6 C         144.7481  141.2320  163.0240 C.ar    1  UNL1        0.1387
      7 C         144.3807  139.8563  163.4955 C.ar    1  UNL1        0.0369
      8 C         143.8287  138.8537  162.5260 C.ar    1  UNL1        0.0031
      9 C         143.6441  139.2268  161.0849 C.ar    1  UNL1        0.0002
     10 C         143.0920  138.2241  160.1154 C.ar    1  UNL1        0.0015
     11 C         142.9074  138.5972  158.6743 C.ar    1  UNL1        0.0174
     12 C         143.2748  139.9730  158.2027 C.ar    1  UNL1        0.0015
     13 C         143.8268  140.9756  159.1723 C.ar    1  UNL1        0.0001
     14 C         144.0115  140.6025  160.6134 C.ar    1  UNL1        0.0030
     15 C         144.5635  141.6051  161.5830 C.ar    1  UNL1        0.0369
     16 C         144.4079  142.8388  165.0371 C.3     1  UNL1        0.2525
     17 O         145.3001  142.2346  163.9935 O.3     1  UNL1       -0.4714
     18 C         142.4443  134.3835  155.5262 C.ar    1  UNL1        0.0211
     19 C         143.4884  133.4448  156.0541 C.ar    1  UNL1        0.0130
     20 C         143.7901  132.1705  155.3225 C.ar    1  UNL1        0.0586
     21 CL        144.8343  131.2318  155.8504 Cl      1  UNL1       -0.0822
     22 C         143.0476  131.8350  154.0630 C.ar    1  UNL1        0.0228
     23 C         142.0035  132.7736  153.5352 C.ar    1  UNL1        0.0586
     24 CL        141.2610  132.4380  152.2757 Cl      1  UNL1       -0.0822
     25 C         141.7018  134.0479  154.2668 C.ar    1  UNL1        0.0130
     26 C         139.9606  138.7019  157.2762 C.3     1  UNL1        0.1274
     27 C         139.1206  139.1717  156.1255 C.3     1  UNL1        0.0312
     28 C         139.7601  139.2914  158.6408 C.ar    1  UNL1       -0.0001
     29 C         139.8539  140.7756  158.8377 C.ar    1  UNL1       -0.0023
     30 C         139.6534  141.3652  160.2023 C.ar    1  UNL1        0.0042
     31 C         139.3591  140.4708  161.3700 C.ar    1  UNL1        0.0533
     32 C         139.2653  138.9867  161.1731 C.ar    1  UNL1        0.0042
     33 C         139.4658  138.3971  159.8085 C.ar    1  UNL1       -0.0023
     34 C         139.1586  141.0604  162.7345 C.2     1  UNL1        0.2459
     35 O         140.1737  140.8192  163.8124 O.2     1  UNL1       -0.2701
     36 N         137.9431  141.8913  163.0214 N.am    1  UNL1       -0.3005
     37 H         137.2770  142.0496  162.3140 H       1  UNL1        0.1498
     38 C         137.7427  142.4809  164.3860 C.3     1  UNL1        0.0956
     39 C         138.2906  143.8408  164.7033 C.3     1  UNL1        0.0629
     40 C         138.9407  144.6575  163.6261 C.2     1  UNL1        0.0520
     41 O         138.1808  144.9925  162.3770 O.co2   1  UNL1       -0.5491
     42 O         140.3508  145.1393  163.7981 O.co2   1  UNL1       -0.5491
@<TRIPOS>UNITY_ATOM_ATTR
41 1
charge -1
@<TRIPOS>BOND
     1    16    17    1
     2    17     6    1
     3     6     7   ar
     4     7     8   ar
     5     8     9   ar
     6     9    10   ar
     7    10    11   ar
     8    11     1    1
     9     1     2   ar
    10     2     3   ar
    11     3    18    1
    12    18    19   ar
    13    19    20   ar
    14    20    21    1
    15    20    22   ar
    16    22    23   ar
    17    23    24    1
    18    23    25   ar
    19     3     4   ar
    20     4     5   ar
    21     5    26    1
    22    26    27    1
    23    26    28    1
    24    28    29   ar
    25    29    30   ar
    26    30    31   ar
    27    31    34    1
    28    34    35    2
    29    34    36   am
    30    36    38    1
    31    38    39    1
    32    39    40    1
    33    40    41   ar
    34    40    42   ar
    35    31    32   ar
    36    32    33   ar
    37    11    12   ar
    38    12    13   ar
    39    13    14   ar
    40    14    15   ar
    41    15     6   ar
    42    14     9   ar
    43     5     1   ar
    44    33    28   ar
    45    25    18   ar
    46    36    37    1
@<TRIPOS>MOLECULE
*****
 42 46 0 0 0
SMALL
GASTEIGER

@<TRIPOS>ATOM
      1 C         142.0910  140.2169  160.3571 C.ar    1  UNL1        0.0797
      2 C         141.8408  139.6830  158.9778 C.ar    1  UNL1        0.0396
      3 C         143.0634  139.9468  158.1498 C.ar    1  UNL1        0.1024
      4 N         144.0693  140.6437  159.0174 N.ar    1  UNL1       -0.1691
      5 N         143.4683  140.8106  160.3816 N.ar    1  UNL1       -0.2487
      6 C         138.1622  138.7762  165.8105 C.ar    1  UNL1        0.1387
      7 C         139.0271  137.5903  165.5014 C.ar    1  UNL1        0.0369
      8 C         139.9859  137.6413  164.3489 C.ar    1  UNL1        0.0031
      9 C         140.0797  138.8781  163.5055 C.ar    1  UNL1        0.0002
     10 C         141.0384  138.9291  162.3530 C.ar    1  UNL1        0.0015
     11 C         141.1323  140.1659  161.5096 C.ar    1  UNL1        0.0174
     12 C         140.2673  141.3519  161.8187 C.ar    1  UNL1        0.0015
     13 C         139.3086  141.3009  162.9712 C.ar    1  UNL1        0.0001
     14 C         139.2148  140.0640  163.8146 C.ar    1  UNL1        0.0030
     15 C         138.2561  140.0130  164.9671 C.ar    1  UNL1        0.0369
     16 C         136.9062  137.4171  167.6339 C.3     1  UNL1        0.2525
     17 O         137.2035  138.7252  166.9630 O.3     1  UNL1       -0.4714
     18 C         143.2479  139.5785  156.7076 C.ar    1  UNL1        0.0211
     19 C         142.7461  138.2591  156.2003 C.ar    1  UNL1        0.0130
     20 C         142.9306  137.8908  154.7580 C.ar    1  UNL1        0.0586
     21 CL        142.4288  136.5713  154.2507 Cl      1  UNL1       -0.0822
     22 C         143.6169  138.8419  153.8229 C.ar    1  UNL1        0.0228
     23 C         144.1187  140.1613  154.3301 C.ar    1  UNL1        0.0586
     24 CL        144.8050  141.1125  153.3950 Cl      1  UNL1       -0.0822
     25 C         143.9342  140.5296  155.7725 C.ar    1  UNL1        0.0130
     26 C         144.1287  141.4576  161.5628 C.3     1  UNL1        0.1274
     27 C         145.0560  142.6192  161.3605 C.3     1  UNL1        0.0312
     28 C         143.8618  140.9431  162.9463 C.ar    1  UNL1       -0.0001
     29 C         143.0588  141.7655  163.9102 C.ar    1  UNL1       -0.0023
     30 C         142.7918  141.2512  165.2938 C.ar    1  UNL1        0.0042
     31 C         143.3279  139.9145  165.7133 C.ar    1  UNL1        0.0533
     32 C         144.1308  139.0922  164.7495 C.ar    1  UNL1        0.0042
     33 C         144.3978  139.6065  163.3660 C.ar    1  UNL1       -0.0023
     34 C         143.0609  139.4002  167.0969 C.2     1  UNL1        0.2459
     35 O         143.6706  138.1053  167.5464 O.2     1  UNL1       -0.2701
     36 N         142.1843  140.1806  168.0310 N.am    1  UNL1       -0.3005
     37 H         141.7842  141.0303  167.7360 H       1  UNL1        0.1498
     38 C         141.9173  139.6662  169.4145 C.3     1  UNL1        0.0956
     39 C         142.0465  140.5841  170.5938 C.3     1  UNL1        0.0629
     40 C         141.1823  141.8063  170.6913 C.2     1  UNL1        0.0520
     41 O         140.9275  142.6437  169.4732 O.co2   1  UNL1       -0.5491
     42 O         140.5728  142.1910  172.0068 O.co2   1  UNL1       -0.5491
@<TRIPOS>UNITY_ATOM_ATTR
41 1
charge -1
@<TRIPOS>BOND
     1    16    17    1
     2    17     6    1
     3     6     7   ar
     4     7     8   ar
     5     8     9   ar
     6     9    10   ar
     7    10    11   ar
     8    11     1    1
     9     1     2   ar
    10     2     3   ar
    11     3    18    1
    12    18    19   ar
    13    19    20   ar
    14    20    21    1
    15    20    22   ar
    16    22    23   ar
    17    23    24    1
    18    23    25   ar
    19     3     4   ar
    20     4     5   ar
    21     5    26    1
    22    26    27    1
    23    26    28    1
    24    28    29   ar
    25    29    30   ar
    26    30    31   ar
    27    31    34    1
    28    34    35    2
    29    34    36   am
    30    36    38    1
    31    38    39    1
    32    39    40    1
    33    40    41   ar
    34    40    42   ar
    35    31    32   ar
    36    32    33   ar
    37    11    12   ar
    38    12    13   ar
    39    13    14   ar
    40    14    15   ar
    41    15     6   ar
    42    14     9   ar
    43     5     1   ar
    44    33    28   ar
    45    25    18   ar
    46    36    37    1
