@<TRIPOS>MOLECULE
*****
 33 35 0 0 0
SMALL
GASTEIGER

@<TRIPOS>ATOM
      1 N         141.9657  141.0749  166.6319 N.am    1  UNL1       -0.3005
      2 C         141.8940  140.0623  167.7362 C.2     1  UNL1        0.2474
      3 O         143.0605  139.1571  168.0006 O.2     1  UNL1       -0.2701
      4 H         141.2001  141.6690  166.4584 H       1  UNL1        0.1498
      5 C         140.6559  139.9550  168.5760 C.ar    1  UNL1        0.0727
      6 C         139.3217  139.7485  167.9222 C.ar    1  UNL1        0.0109
      7 C         138.0835  139.6411  168.7621 C.ar    1  UNL1        0.0579
      8 C         138.1795  139.7403  170.2557 C.ar    1  UNL1        0.2249
      9 N         139.5136  139.9467  170.9095 N.ar    1  UNL1       -0.2100
     10 C         140.7518  140.0541  170.0697 C.ar    1  UNL1        0.1065
     11 O         136.9413  139.6329  171.0956 O.3     1  UNL1       -0.4599
     12 C         136.1900  138.3363  171.1618 C.3     1  UNL1        0.2159
     13 C         136.5653  137.3032  172.1825 C.3     1  UNL1        0.1505
     14 C         135.5573  136.8503  173.1968 C.3     1  UNL1        0.4014
     15 F         134.5493  136.3973  174.2111 F       1  UNL1       -0.1699
     16 F         136.1163  135.4599  173.1315 F       1  UNL1       -0.1699
     17 F         134.9983  138.2406  173.2622 F       1  UNL1       -0.1699
     18 C         143.2039  141.1823  165.7920 C.3     1  UNL1        0.0944
     19 C         143.3474  140.3435  164.5568 C.3     1  UNL1        0.0476
     20 C         141.0306  139.9889  163.4356 C.ar    1  UNL1        0.0153
     21 C         139.9170  139.0761  163.0153 C.ar    1  UNL1        0.0012
     22 C         140.0064  137.6053  163.2959 C.ar    1  UNL1        0.0000
     23 C         141.2095  137.0472  163.9967 C.ar    1  UNL1       -0.0003
     24 C         142.3231  137.9600  164.4170 C.ar    1  UNL1       -0.0042
     25 C         142.2337  139.4308  164.1364 C.ar    1  UNL1       -0.0190
     26 C         140.7624  144.4013  162.5940 C.ar    1  UNL1        0.2449
     27 C         141.6608  143.5328  161.7643 C.ar    1  UNL1        0.1564
     28 N         141.7503  142.0620  162.0449 N.ar    1  UNL1       -0.2374
     29 C         140.9412  141.4597  163.1551 C.ar    1  UNL1        0.1004
     30 C         140.0428  142.3282  163.9848 C.ar    1  UNL1        0.1211
     31 N         139.9534  143.7990  163.7043 N.ar    1  UNL1       -0.2072
     32 C         139.5692  146.4050  161.4489 C.3     1  UNL1        0.2543
     33 O         140.6730  145.8721  162.3135 O.3     1  UNL1       -0.4551
@<TRIPOS>BOND
     1    32    33    1
     2    33    26    1
     3    26    27   ar
     4    27    28   ar
     5    28    29   ar
     6    29    20    1
     7    20    21   ar
     8    21    22   ar
     9    22    23   ar
    10    23    24   ar
    11    24    25   ar
    12    25    19    1
    13    19    18    1
    14    18     1    1
    15     1     2   am
    16     2     3    2
    17     2     5    1
    18     5     6   ar
    19     6     7   ar
    20     7     8   ar
    21     8    11    1
    22    11    12    1
    23    12    13    1
    24    13    14    1
    25    14    15    1
    26    14    16    1
    27    14    17    1
    28     8     9   ar
    29     9    10   ar
    30    29    30   ar
    31    30    31   ar
    32    31    26   ar
    33    25    20   ar
    34    10     5   ar
    35     1     4    1
@<TRIPOS>MOLECULE
*****
 33 35 0 0 0
SMALL
GASTEIGER

@<TRIPOS>ATOM
      1 N         140.8114  139.8344  162.6739 N.am    1  UNL1       -0.3005
      2 C         140.4289  138.6992  163.5767 C.2     1  UNL1        0.2474
      3 O         140.5102  137.2861  163.0803 O.2     1  UNL1       -0.2701
      4 H         140.7581  140.7619  162.9997 H       1  UNL1        0.1498
      5 C         139.9652  138.9772  164.9758 C.ar    1  UNL1        0.0727
      6 C         138.5964  138.5455  165.4120 C.ar    1  UNL1        0.0109
      7 C         138.1327  138.8235  166.8111 C.ar    1  UNL1        0.0579
      8 C         139.0377  139.5332  167.7741 C.ar    1  UNL1        0.2249
      9 N         140.4064  139.9649  167.3380 N.ar    1  UNL1       -0.2100
     10 C         140.8702  139.6869  165.9388 C.ar    1  UNL1        0.1065
     11 O         138.5739  139.8112  169.1733 O.3     1  UNL1       -0.4599
     12 C         139.5049  140.4541  170.1582 C.3     1  UNL1        0.2159
     13 C         139.5539  141.9485  170.2787 C.3     1  UNL1        0.1505
     14 C         140.8261  142.6839  169.9777 C.3     1  UNL1        0.4014
     15 F         142.0983  143.4193  169.6767 F       1  UNL1       -0.1699
     16 F         140.2119  143.2336  168.7245 F       1  UNL1       -0.1699
     17 F         141.4404  142.1342  171.2309 F       1  UNL1       -0.1699
     18 C         141.2752  139.5564  161.2747 C.3     1  UNL1        0.0944
     19 C         142.7413  139.5511  160.9576 C.3     1  UNL1        0.0476
     20 C         144.2573  141.5233  161.7076 C.ar    1  UNL1        0.0153
     21 C         145.2368  142.1122  162.6790 C.ar    1  UNL1        0.0012
     22 C         145.6799  141.3179  163.8718 C.ar    1  UNL1        0.0000
     23 C         145.1435  139.9348  164.0933 C.ar    1  UNL1       -0.0003
     24 C         144.1639  139.3459  163.1219 C.ar    1  UNL1       -0.0042
     25 C         143.7208  140.1401  161.9290 C.ar    1  UNL1       -0.0190
     26 C         142.9281  143.9060  158.1290 C.ar    1  UNL1        0.2449
     27 C         143.9596  142.8284  157.9716 C.ar    1  UNL1        0.1564
     28 N         144.4027  142.0342  159.1644 N.ar    1  UNL1       -0.2374
     29 C         143.8142  142.3175  160.5147 C.ar    1  UNL1        0.1004
     30 C         142.7827  143.3950  160.6722 C.ar    1  UNL1        0.1211
     31 N         142.3396  144.1892  159.4794 N.ar    1  UNL1       -0.2072
     32 C         141.6505  145.9324  157.1235 C.3     1  UNL1        0.2543
     33 O         142.4850  144.7002  156.9362 O.3     1  UNL1       -0.4551
@<TRIPOS>BOND
     1    32    33    1
     2    33    26    1
     3    26    27   ar
     4    27    28   ar
     5    28    29   ar
     6    29    20    1
     7    20    21   ar
     8    21    22   ar
     9    22    23   ar
    10    23    24   ar
    11    24    25   ar
    12    25    19    1
    13    19    18    1
    14    18     1    1
    15     1     2   am
    16     2     3    2
    17     2     5    1
    18     5     6   ar
    19     6     7   ar
    20     7     8   ar
    21     8    11    1
    22    11    12    1
    23    12    13    1
    24    13    14    1
    25    14    15    1
    26    14    16    1
    27    14    17    1
    28     8     9   ar
    29     9    10   ar
    30    29    30   ar
    31    30    31   ar
    32    31    26   ar
    33    25    20   ar
    34    10     5   ar
    35     1     4    1
@<TRIPOS>MOLECULE
*****
 33 35 0 0 0
SMALL
GASTEIGER

@<TRIPOS>ATOM
      1 N         139.4095  138.1508  163.9253 N.am    1  UNL1       -0.3005
      2 C         140.9030  138.1016  163.7948 C.2     1  UNL1        0.2474
      3 O         141.7598  137.9905  165.0210 O.2     1  UNL1       -0.2701
      4 H         138.8472  138.2237  163.1205 H       1  UNL1        0.1498
      5 C         141.5397  138.1635  162.4380 C.ar    1  UNL1        0.0727
      6 C         143.0258  138.0138  162.2994 C.ar    1  UNL1        0.0109
      7 C         143.6624  138.0757  160.9426 C.ar    1  UNL1        0.0579
      8 C         142.8131  138.2874  159.7245 C.ar    1  UNL1        0.2249
      9 N         141.3271  138.4372  159.8631 N.ar    1  UNL1       -0.2100
     10 C         140.6903  138.3753  161.2199 C.ar    1  UNL1        0.1065
     11 O         143.4498  138.3493  158.3678 O.3     1  UNL1       -0.4599
     12 C         142.6311  138.0724  157.1417 C.3     1  UNL1        0.2159
     13 C         142.2011  136.6701  156.8280 C.3     1  UNL1        0.1505
     14 C         143.2079  135.6662  156.3494 C.3     1  UNL1        0.4014
     15 F         144.2145  134.6624  155.8710 F       1  UNL1       -0.1699
     16 F         143.1708  136.2810  154.9817 F       1  UNL1       -0.1699
     17 F         143.2449  135.0515  157.7171 F       1  UNL1       -0.1699
     18 C         138.7728  138.0889  165.2821 C.3     1  UNL1        0.0944
     19 C         138.2327  139.3370  165.9148 C.3     1  UNL1        0.0476
     20 C         139.6578  141.5008  166.1080 C.ar    1  UNL1        0.0153
     21 C         140.5655  142.3917  166.9032 C.ar    1  UNL1        0.0012
     22 C         140.9557  142.0099  168.3003 C.ar    1  UNL1        0.0000
     23 C         140.4383  140.7372  168.9023 C.ar    1  UNL1       -0.0003
     24 C         139.5306  139.8462  168.1071 C.ar    1  UNL1       -0.0042
     25 C         139.1404  140.2281  166.7100 C.ar    1  UNL1       -0.0190
     26 C         138.4871  142.6462  161.9167 C.ar    1  UNL1        0.2449
     27 C         137.5499  142.9138  163.0568 C.ar    1  UNL1        0.1564
     28 N         137.9402  142.5320  164.4539 N.ar    1  UNL1       -0.2374
     29 C         139.2676  141.8826  164.7109 C.ar    1  UNL1        0.1004
     30 C         140.2048  141.6150  163.5708 C.ar    1  UNL1        0.1211
     31 N         139.8146  141.9968  162.1737 N.ar    1  UNL1       -0.2072
     32 C         138.9285  142.5720  159.3574 C.3     1  UNL1        0.2543
     33 O         138.0969  143.0280  160.5195 O.3     1  UNL1       -0.4551
@<TRIPOS>BOND
     1    32    33    1
     2    33    26    1
     3    26    27   ar
     4    27    28   ar
     5    28    29   ar
     6    29    20    1
     7    20    21   ar
     8    21    22   ar
     9    22    23   ar
    10    23    24   ar
    11    24    25   ar
    12    25    19    1
    13    19    18    1
    14    18     1    1
    15     1     2   am
    16     2     3    2
    17     2     5    1
    18     5     6   ar
    19     6     7   ar
    20     7     8   ar
    21     8    11    1
    22    11    12    1
    23    12    13    1
    24    13    14    1
    25    14    15    1
    26    14    16    1
    27    14    17    1
    28     8     9   ar
    29     9    10   ar
    30    29    30   ar
    31    30    31   ar
    32    31    26   ar
    33    25    20   ar
    34    10     5   ar
    35     1     4    1
@<TRIPOS>MOLECULE
*****
 33 35 0 0 0
SMALL
GASTEIGER

@<TRIPOS>ATOM
      1 N         142.2646  142.6072  165.0721 N.am    1  UNL1       -0.3005
      2 C         142.9683  143.4714  164.0681 C.2     1  UNL1        0.2474
      3 O         144.4360  143.7454  164.2122 O.2     1  UNL1       -0.2701
      4 H         141.3013  142.4273  164.9775 H       1  UNL1        0.1498
      5 C         142.2043  144.0615  162.9201 C.ar    1  UNL1        0.0727
      6 C         140.9220  144.7980  163.1720 C.ar    1  UNL1        0.0109
      7 C         140.1580  145.3881  162.0240 C.ar    1  UNL1        0.0579
      8 C         140.6762  145.2417  160.6240 C.ar    1  UNL1        0.2249
      9 N         141.9584  144.5053  160.3720 N.ar    1  UNL1       -0.2100
     10 C         142.7225  143.9151  161.5201 C.ar    1  UNL1        0.1065
     11 O         139.9122  145.8318  159.4760 O.3     1  UNL1       -0.4599
     12 C         140.1291  145.3134  158.0852 C.3     1  UNL1        0.2159
     13 C         140.4498  146.2655  156.9713 C.3     1  UNL1        0.1505
     14 C         139.3714  146.7032  156.0250 C.3     1  UNL1        0.4014
     15 F         138.2930  147.1409  155.0786 F       1  UNL1       -0.1699
     16 F         138.9086  147.7223  157.0236 F       1  UNL1       -0.1699
     17 F         139.8341  145.6842  155.0263 F       1  UNL1       -0.1699
     18 C         143.0286  142.0170  166.2202 C.3     1  UNL1        0.0944
     19 C         142.6945  140.6410  166.7151 C.3     1  UNL1        0.0476
     20 C         140.4239  140.3089  167.9333 C.ar    1  UNL1        0.0153
     21 C         139.6438  140.1374  169.2029 C.ar    1  UNL1        0.0012
     22 C         140.3542  140.1264  170.5240 C.ar    1  UNL1        0.0000
     23 C         141.8446  140.2869  170.5754 C.ar    1  UNL1       -0.0003
     24 C         142.6247  140.4585  169.3058 C.ar    1  UNL1       -0.0042
     25 C         141.9143  140.4695  167.9847 C.ar    1  UNL1       -0.0190
     26 C         138.2927  140.3419  163.9701 C.ar    1  UNL1        0.2449
     27 C         138.6895  141.6347  164.6191 C.ar    1  UNL1        0.1564
     28 N         139.3998  141.6237  165.9402 N.ar    1  UNL1       -0.2374
     29 C         139.7135  140.3199  166.6122 C.ar    1  UNL1        0.1004
     30 C         139.3168  139.0272  165.9632 C.ar    1  UNL1        0.1211
     31 N         138.6064  139.0382  164.6421 N.ar    1  UNL1       -0.2072
     32 C         137.8741  139.2899  161.6317 C.3     1  UNL1        0.2543
     33 O         137.5824  140.3529  162.6490 O.3     1  UNL1       -0.4551
@<TRIPOS>BOND
     1    32    33    1
     2    33    26    1
     3    26    27   ar
     4    27    28   ar
     5    28    29   ar
     6    29    20    1
     7    20    21   ar
     8    21    22   ar
     9    22    23   ar
    10    23    24   ar
    11    24    25   ar
    12    25    19    1
    13    19    18    1
    14    18     1    1
    15     1     2   am
    16     2     3    2
    17     2     5    1
    18     5     6   ar
    19     6     7   ar
    20     7     8   ar
    21     8    11    1
    22    11    12    1
    23    12    13    1
    24    13    14    1
    25    14    15    1
    26    14    16    1
    27    14    17    1
    28     8     9   ar
    29     9    10   ar
    30    29    30   ar
    31    30    31   ar
    32    31    26   ar
    33    25    20   ar
    34    10     5   ar
    35     1     4    1
@<TRIPOS>MOLECULE
*****
 33 35 0 0 0
SMALL
GASTEIGER

@<TRIPOS>ATOM
      1 N         141.5375  141.9637  166.3702 N.am    1  UNL1       -0.3005
      2 C         141.0002  140.5785  166.5761 C.2     1  UNL1        0.2474
      3 O         141.4382  139.4624  165.6746 O.2     1  UNL1       -0.2701
      4 H         141.2501  142.6962  166.9618 H       1  UNL1        0.1498
      5 C         140.0249  140.3093  167.6834 C.ar    1  UNL1        0.0727
      6 C         140.2381  140.9217  169.0360 C.ar    1  UNL1        0.0109
      7 C         139.2628  140.6526  170.1434 C.ar    1  UNL1        0.0579
      8 C         138.0743  139.7710  169.8982 C.ar    1  UNL1        0.2249
      9 N         137.8610  139.1586  168.5456 N.ar    1  UNL1       -0.2100
     10 C         138.8363  139.4277  167.4382 C.ar    1  UNL1        0.1065
     11 O         137.0989  139.5018  171.0055 O.3     1  UNL1       -0.4599
     12 C         136.4830  138.1415  171.1483 C.3     1  UNL1        0.2159
     13 C         135.6075  137.8346  172.3270 C.3     1  UNL1        0.1505
     14 C         135.7894  136.5516  173.0825 C.3     1  UNL1        0.4014
     15 F         135.9713  135.2686  173.8381 F       1  UNL1       -0.1699
     16 F         137.1774  136.4223  172.5288 F       1  UNL1       -0.1699
     17 F         134.4014  136.6809  173.6363 F       1  UNL1       -0.1699
     18 C         142.5129  142.2329  165.2628 C.3     1  UNL1        0.0944
     19 C         142.0910  143.0411  164.0717 C.3     1  UNL1        0.0476
     20 C         139.8535  142.6934  162.7978 C.ar    1  UNL1        0.0153
     21 C         138.4066  143.0338  162.5969 C.ar    1  UNL1        0.0012
     22 C         137.7501  144.0626  163.4691 C.ar    1  UNL1        0.0000
     23 C         138.5405  144.7509  164.5421 C.ar    1  UNL1       -0.0003
     24 C         139.9875  144.4104  164.7430 C.ar    1  UNL1       -0.0042
     25 C         140.6439  143.3816  163.8708 C.ar    1  UNL1       -0.0190
     26 C         141.8230  139.6071  160.1813 C.ar    1  UNL1        0.2449
     27 C         141.8681  141.0560  159.7960 C.ar    1  UNL1        0.1564
     28 N         141.2116  142.0848  160.6682 N.ar    1  UNL1       -0.2374
     29 C         140.5100  141.6646  161.9256 C.ar    1  UNL1        0.1004
     30 C         140.4649  140.2156  162.3109 C.ar    1  UNL1        0.1211
     31 N         141.1213  139.1869  161.4387 N.ar    1  UNL1       -0.2072
     32 C         143.0354  137.3246  159.9165 C.3     1  UNL1        0.2543
     33 O         142.4795  138.5783  159.3091 O.3     1  UNL1       -0.4551
@<TRIPOS>BOND
     1    32    33    1
     2    33    26    1
     3    26    27   ar
     4    27    28   ar
     5    28    29   ar
     6    29    20    1
     7    20    21   ar
     8    21    22   ar
     9    22    23   ar
    10    23    24   ar
    11    24    25   ar
    12    25    19    1
    13    19    18    1
    14    18     1    1
    15     1     2   am
    16     2     3    2
    17     2     5    1
    18     5     6   ar
    19     6     7   ar
    20     7     8   ar
    21     8    11    1
    22    11    12    1
    23    12    13    1
    24    13    14    1
    25    14    15    1
    26    14    16    1
    27    14    17    1
    28     8     9   ar
    29     9    10   ar
    30    29    30   ar
    31    30    31   ar
    32    31    26   ar
    33    25    20   ar
    34    10     5   ar
    35     1     4    1
@<TRIPOS>MOLECULE
*****
 33 35 0 0 0
SMALL
GASTEIGER

@<TRIPOS>ATOM
      1 N         142.8346  142.7477  164.2780 N.am    1  UNL1       -0.3005
      2 C         142.9740  144.1340  163.7224 C.2     1  UNL1        0.2474
      3 O         143.9028  145.1141  164.3757 O.2     1  UNL1       -0.2701
      4 H         142.2250  142.1045  163.8492 H       1  UNL1        0.1498
      5 C         142.1845  144.5402  162.5134 C.ar    1  UNL1        0.0727
      6 C         140.9652  145.4002  162.6680 C.ar    1  UNL1        0.0109
      7 C         140.1758  145.8064  161.4590 C.ar    1  UNL1        0.0579
      8 C         140.6056  145.3527  160.0954 C.ar    1  UNL1        0.2249
      9 N         141.8248  144.4928  159.9408 N.ar    1  UNL1       -0.2100
     10 C         142.6143  144.0865  161.1498 C.ar    1  UNL1        0.1065
     11 O         139.8161  145.7589  158.8864 O.3     1  UNL1       -0.4599
     12 C         140.5180  146.0303  157.5887 C.3     1  UNL1        0.2159
     13 C         139.7858  146.7050  156.4668 C.3     1  UNL1        0.1505
     14 C         140.2992  146.5933  155.0618 C.3     1  UNL1        0.4014
     15 F         140.8125  146.4816  153.6568 F       1  UNL1       -0.1699
     16 F         140.3583  145.1010  155.2020 F       1  UNL1       -0.1699
     17 F         140.2401  148.0855  154.9216 F       1  UNL1       -0.1699
     18 C         143.6241  142.3415  165.4871 C.3     1  UNL1        0.0944
     19 C         142.9899  141.4877  166.5448 C.3     1  UNL1        0.0476
     20 C         141.0057  142.5568  167.8371 C.ar    1  UNL1        0.0153
     21 C         140.4557  143.1890  169.0812 C.ar    1  UNL1        0.0012
     22 C         141.3398  143.3844  170.2771 C.ar    1  UNL1        0.0000
     23 C         142.7740  142.9475  170.2289 C.ar    1  UNL1       -0.0003
     24 C         143.3240  142.3153  168.9848 C.ar    1  UNL1       -0.0042
     25 C         142.4398  142.1200  167.7889 C.ar    1  UNL1       -0.0190
     26 C         138.3533  141.9707  164.2495 C.ar    1  UNL1        0.2449
     27 C         138.7210  140.7983  165.1099 C.ar    1  UNL1        0.1564
     28 N         139.6052  140.9937  166.3058 N.ar    1  UNL1       -0.2374
     29 C         140.1215  142.3614  166.6413 C.ar    1  UNL1        0.1004
     30 C         139.7538  143.5338  165.7809 C.ar    1  UNL1        0.1211
     31 N         138.8696  143.3384  164.5850 N.ar    1  UNL1       -0.2072
     32 C         137.9331  142.2178  161.6976 C.3     1  UNL1        0.2543
     33 O         137.4691  141.7753  163.0536 O.3     1  UNL1       -0.4551
@<TRIPOS>BOND
     1    32    33    1
     2    33    26    1
     3    26    27   ar
     4    27    28   ar
     5    28    29   ar
     6    29    20    1
     7    20    21   ar
     8    21    22   ar
     9    22    23   ar
    10    23    24   ar
    11    24    25   ar
    12    25    19    1
    13    19    18    1
    14    18     1    1
    15     1     2   am
    16     2     3    2
    17     2     5    1
    18     5     6   ar
    19     6     7   ar
    20     7     8   ar
    21     8    11    1
    22    11    12    1
    23    12    13    1
    24    13    14    1
    25    14    15    1
    26    14    16    1
    27    14    17    1
    28     8     9   ar
    29     9    10   ar
    30    29    30   ar
    31    30    31   ar
    32    31    26   ar
    33    25    20   ar
    34    10     5   ar
    35     1     4    1
@<TRIPOS>MOLECULE
*****
 33 35 0 0 0
SMALL
GASTEIGER

@<TRIPOS>ATOM
      1 N         139.9621  139.5088  162.9276 N.am    1  UNL1       -0.3005
      2 C         140.8393  138.4897  162.2630 C.2     1  UNL1        0.2474
      3 O         140.7943  137.0576  162.7068 O.2     1  UNL1       -0.2701
      4 H         139.9917  140.4488  162.6363 H       1  UNL1        0.1498
      5 C         141.7616  138.9027  161.1545 C.ar    1  UNL1        0.0727
      6 C         142.0296  140.3572  160.9045 C.ar    1  UNL1        0.0109
      7 C         142.9519  140.7702  159.7960 C.ar    1  UNL1        0.0579
      8 C         143.6062  139.7287  158.9374 C.ar    1  UNL1        0.2249
      9 N         143.3382  138.2741  159.1874 N.ar    1  UNL1       -0.2100
     10 C         142.4159  137.8611  160.2959 C.ar    1  UNL1        0.1065
     11 O         144.5285  140.1416  157.8289 O.3     1  UNL1       -0.4599
     12 C         144.6617  141.5907  157.4647 C.3     1  UNL1        0.2159
     13 C         145.9019  142.0803  156.7776 C.3     1  UNL1        0.1505
     14 C         146.9332  142.8489  157.5495 C.3     1  UNL1        0.4014
     15 F         147.9645  143.6175  158.3213 F       1  UNL1       -0.1699
     16 F         147.8689  142.7680  156.3799 F       1  UNL1       -0.1699
     17 F         145.9976  142.9298  158.7191 F       1  UNL1       -0.1699
     18 C         139.0398  139.0959  164.0362 C.3     1  UNL1        0.0944
     19 C         138.4179  140.1354  164.9208 C.3     1  UNL1        0.0476
     20 C         139.8200  141.9985  166.0667 C.ar    1  UNL1        0.0153
     21 C         140.5684  142.5124  167.2608 C.ar    1  UNL1        0.0012
     22 C         140.6633  141.6769  168.5030 C.ar    1  UNL1        0.0000
     23 C         140.0097  140.3277  168.5512 C.ar    1  UNL1       -0.0003
     24 C         139.2613  139.8139  167.3571 C.ar    1  UNL1       -0.0042
     25 C         139.1664  140.6493  166.1149 C.ar    1  UNL1       -0.0190
     26 C         139.5353  144.5048  162.3401 C.ar    1  UNL1        0.2449
     27 C         140.5825  143.4363  162.4472 C.ar    1  UNL1        0.1564
     28 N         140.6774  142.6009  163.6894 N.ar    1  UNL1       -0.2374
     29 C         139.7251  142.8340  164.8245 C.ar    1  UNL1        0.1004
     30 C         138.6778  143.9024  164.7175 C.ar    1  UNL1        0.1211
     31 N         138.5829  144.7379  163.4753 N.ar    1  UNL1       -0.2072
     32 C         140.3825  145.0965  159.9564 C.3     1  UNL1        0.2543
     33 O         139.4404  145.3402  161.0979 O.3     1  UNL1       -0.4551
@<TRIPOS>BOND
     1    32    33    1
     2    33    26    1
     3    26    27   ar
     4    27    28   ar
     5    28    29   ar
     6    29    20    1
     7    20    21   ar
     8    21    22   ar
     9    22    23   ar
    10    23    24   ar
    11    24    25   ar
    12    25    19    1
    13    19    18    1
    14    18     1    1
    15     1     2   am
    16     2     3    2
    17     2     5    1
    18     5     6   ar
    19     6     7   ar
    20     7     8   ar
    21     8    11    1
    22    11    12    1
    23    12    13    1
    24    13    14    1
    25    14    15    1
    26    14    16    1
    27    14    17    1
    28     8     9   ar
    29     9    10   ar
    30    29    30   ar
    31    30    31   ar
    32    31    26   ar
    33    25    20   ar
    34    10     5   ar
    35     1     4    1
@<TRIPOS>MOLECULE
*****
 33 35 0 0 0
SMALL
GASTEIGER

@<TRIPOS>ATOM
      1 N         138.8625  138.4393  163.0404 N.am    1  UNL1       -0.3005
      2 C         138.4043  139.6302  163.8290 C.2     1  UNL1        0.2474
      3 O         137.6552  140.7373  163.1485 O.2     1  UNL1       -0.2701
      4 H         139.3542  137.7127  163.4870 H       1  UNL1        0.1498
      5 C         138.6954  139.7140  165.2980 C.ar    1  UNL1        0.0727
      6 C         139.6595  140.7407  165.8143 C.ar    1  UNL1        0.0109
      7 C         139.9505  140.8245  167.2834 C.ar    1  UNL1        0.0579
      8 C         139.2776  139.8816  168.2363 C.ar    1  UNL1        0.2249
      9 N         138.3135  138.8549  167.7201 N.ar    1  UNL1       -0.2100
     10 C         138.0224  138.7710  166.2509 C.ar    1  UNL1        0.1065
     11 O         139.5686  139.9653  169.7053 O.3     1  UNL1       -0.4599
     12 C         140.2358  141.1847  170.2694 C.3     1  UNL1        0.2159
     13 C         141.6658  141.1177  170.7172 C.3     1  UNL1        0.1505
     14 C         142.7332  141.8126  169.9247 C.3     1  UNL1        0.4014
     15 F         143.8006  142.5073  169.1323 F       1  UNL1       -0.1699
     16 F         141.7422  142.8578  169.5062 F       1  UNL1       -0.1699
     17 F         143.7243  140.7673  170.3432 F       1  UNL1       -0.1699
     18 C         138.5714  138.3555  161.5712 C.3     1  UNL1        0.0944
     19 C         139.2788  139.2675  160.6133 C.3     1  UNL1        0.0476
     20 C         141.7597  138.6287  160.1804 C.ar    1  UNL1        0.0153
     21 C         142.8212  138.0840  159.2714 C.ar    1  UNL1        0.0012
     22 C         142.4635  137.6333  157.8862 C.ar    1  UNL1        0.0000
     23 C         141.0442  137.7273  157.4100 C.ar    1  UNL1       -0.0003
     24 C         139.9827  138.2720  158.3190 C.ar    1  UNL1       -0.0042
     25 C         140.3405  138.7227  159.7042 C.ar    1  UNL1       -0.0190
     26 C         142.8329  139.9809  164.3361 C.ar    1  UNL1        0.2449
     27 C         142.4077  138.5628  164.0952 C.ar    1  UNL1        0.1564
     28 N         142.0499  138.1121  162.7100 N.ar    1  UNL1       -0.2374
     29 C         142.1175  139.0795  161.5657 C.ar    1  UNL1        0.1004
     30 C         142.5427  140.4976  161.8065 C.ar    1  UNL1        0.1211
     31 N         142.9005  140.9483  163.1918 N.ar    1  UNL1       -0.2072
     32 C         143.3506  141.8936  166.0165 C.3     1  UNL1        0.2543
     33 O         143.1907  140.4317  165.7213 O.3     1  UNL1       -0.4551
@<TRIPOS>BOND
     1    32    33    1
     2    33    26    1
     3    26    27   ar
     4    27    28   ar
     5    28    29   ar
     6    29    20    1
     7    20    21   ar
     8    21    22   ar
     9    22    23   ar
    10    23    24   ar
    11    24    25   ar
    12    25    19    1
    13    19    18    1
    14    18     1    1
    15     1     2   am
    16     2     3    2
    17     2     5    1
    18     5     6   ar
    19     6     7   ar
    20     7     8   ar
    21     8    11    1
    22    11    12    1
    23    12    13    1
    24    13    14    1
    25    14    15    1
    26    14    16    1
    27    14    17    1
    28     8     9   ar
    29     9    10   ar
    30    29    30   ar
    31    30    31   ar
    32    31    26   ar
    33    25    20   ar
    34    10     5   ar
    35     1     4    1
@<TRIPOS>MOLECULE
*****
 33 35 0 0 0
SMALL
GASTEIGER

@<TRIPOS>ATOM
      1 N         138.3584  140.3947  164.8306 N.am    1  UNL1       -0.3005
      2 C         138.6258  139.8098  163.4754 C.2     1  UNL1        0.2474
      3 O         138.9218  138.3460  163.3355 O.2     1  UNL1       -0.2701
      4 H         138.1642  141.3555  164.9224 H       1  UNL1        0.1498
      5 C         138.5971  140.6888  162.2603 C.ar    1  UNL1        0.0727
      6 C         139.2917  140.2542  161.0038 C.ar    1  UNL1        0.0109
      7 C         139.2631  141.1332  159.7886 C.ar    1  UNL1        0.0579
      8 C         138.5398  142.4466  159.8299 C.ar    1  UNL1        0.2249
      9 N         137.8452  142.8812  161.0863 N.ar    1  UNL1       -0.2100
     10 C         137.8738  142.0022  162.3016 C.ar    1  UNL1        0.1065
     11 O         138.5111  143.3256  158.6148 O.3     1  UNL1       -0.4599
     12 C         139.7875  143.8976  158.0726 C.3     1  UNL1        0.2159
     13 C         140.3860  145.1222  158.6987 C.3     1  UNL1        0.1505
     14 C         141.0520  145.0299  160.0396 C.3     1  UNL1        0.4014
     15 F         141.7179  144.9375  161.3805 F       1  UNL1       -0.1699
     16 F         142.2339  144.3575  159.4063 F       1  UNL1       -0.1699
     17 F         139.8701  145.7022  160.6729 F       1  UNL1       -0.1699
     18 C         138.3871  139.5158  166.0458 C.3     1  UNL1        0.0944
     19 C         139.6052  139.4850  166.9205 C.3     1  UNL1        0.0476
     20 C         140.6763  141.7282  167.6760 C.ar    1  UNL1        0.0153
     21 C         140.8760  142.7853  168.7213 C.ar    1  UNL1        0.0012
     22 C         140.2043  142.6564  170.0563 C.ar    1  UNL1        0.0000
     23 C         139.3330  141.4704  170.3461 C.ar    1  UNL1       -0.0003
     24 C         139.1333  140.4132  169.3008 C.ar    1  UNL1       -0.0042
     25 C         139.8049  140.5422  167.9658 C.ar    1  UNL1       -0.0190
     26 C         142.6912  142.1150  163.6710 C.ar    1  UNL1        0.2449
     27 C         141.2948  142.6289  163.8608 C.ar    1  UNL1        0.1564
     28 N         140.6232  142.5000  165.1958 N.ar    1  UNL1       -0.2374
     29 C         141.3479  141.8571  166.3410 C.ar    1  UNL1        0.1004
     30 C         142.7442  141.3432  166.1512 C.ar    1  UNL1        0.1211
     31 N         143.4159  141.4721  164.8161 N.ar    1  UNL1       -0.2072
     32 C         144.8007  141.8469  162.1783 C.3     1  UNL1        0.2543
     33 O         143.3628  142.2439  162.3359 O.3     1  UNL1       -0.4551
@<TRIPOS>BOND
     1    32    33    1
     2    33    26    1
     3    26    27   ar
     4    27    28   ar
     5    28    29   ar
     6    29    20    1
     7    20    21   ar
     8    21    22   ar
     9    22    23   ar
    10    23    24   ar
    11    24    25   ar
    12    25    19    1
    13    19    18    1
    14    18     1    1
    15     1     2   am
    16     2     3    2
    17     2     5    1
    18     5     6   ar
    19     6     7   ar
    20     7     8   ar
    21     8    11    1
    22    11    12    1
    23    12    13    1
    24    13    14    1
    25    14    15    1
    26    14    16    1
    27    14    17    1
    28     8     9   ar
    29     9    10   ar
    30    29    30   ar
    31    30    31   ar
    32    31    26   ar
    33    25    20   ar
    34    10     5   ar
    35     1     4    1
