@<TRIPOS>MOLECULE
*****
 30 33 0 0 0
SMALL
GASTEIGER

@<TRIPOS>ATOM
      1 C         139.6935  140.7866  166.2064 C.ar    1  UNL1        0.1367
      2 C         140.6058  139.8406  165.4836 C.ar    1  UNL1        0.0685
      3 C         141.7529  139.2027  166.2099 C.ar    1  UNL1        0.1344
      4 N         141.9875  139.5109  167.6590 N.ar    1  UNL1       -0.1980
      5 N         143.0280  139.0375  168.6301 N.ar    1  UNL1       -0.1602
      6 C         142.7587  139.6910  169.9532 C.ar    1  UNL1        0.1339
      7 C         141.5517  140.5683  169.7997 C.ar    1  UNL1        0.1250
      8 C         141.0750  140.4570  168.3818 C.ar    1  UNL1        0.1776
      9 N         139.9281  141.0948  167.6555 N.ar    1  UNL1       -0.2109
     10 N         138.5464  141.4246  165.4801 N.pl3   1  UNL1       -0.2978
     11 H         137.6366  141.0626  165.5823 H       1  UNL1        0.1536
     12 C         140.3110  144.5686  163.8211 C.ar    1  UNL1        0.0475
     13 C         140.0717  143.3791  164.7031 C.ar    1  UNL1        0.0290
     14 C         138.7857  142.6140  164.5982 C.ar    1  UNL1        0.0506
     15 C         137.7390  143.0385  163.6112 C.ar    1  UNL1        0.0144
     16 C         137.9782  144.2280  162.7291 C.ar    1  UNL1       -0.0018
     17 C         139.2641  144.9930  162.8341 C.ar    1  UNL1       -0.0083
     18 C         139.5034  146.1825  161.9521 C.3     1  UNL1        0.0323
     19 C         144.1263  145.5682  163.3808 C.3     1  UNL1        0.0949
     20 C         142.8402  144.8032  163.2758 C.2     1  UNL1        0.2266
     21 O         142.7976  143.5080  162.5205 O.2     1  UNL1       -0.2748
     22 N         141.5969  145.3336  163.9261 N.am    1  UNL1       -0.2841
     23 H         141.6249  146.1837  164.4219 H       1  UNL1        0.1548
     24 N         142.6653  138.2566  165.4870 N.pl3   1  UNL1       -0.3196
     25 H         142.6262  137.2918  165.6790 H       1  UNL1        0.1481
     26 C         143.6371  138.7805  164.4717 C.3     1  UNL1        0.0705
     27 C         144.8753  139.5594  164.1396 C.3     1  UNL1        0.0212
     28 C         144.0822  138.9091  163.0450 C.3     1  UNL1        0.0212
     29 C         140.9305  141.4092  170.8753 C.1     1  UNL1        0.1052
     30 N         140.3093  142.2501  171.9509 N.1     1  UNL1       -0.1907
@<TRIPOS>BOND
     1    19    20    1
     2    20    21    2
     3    20    22   am
     4    22    12    1
     5    12    13   ar
     6    13    14   ar
     7    14    10    1
     8    10     1    1
     9     1     2   ar
    10     2     3   ar
    11     3    24    1
    12    24    26    1
    13    26    27    1
    14    27    28    1
    15     3     4   ar
    16     4     5   ar
    17     5     6   ar
    18     6     7   ar
    19     7    29    1
    20    29    30    3
    21     7     8   ar
    22     8     9   ar
    23    14    15   ar
    24    15    16   ar
    25    16    17   ar
    26    17    18    1
    27    17    12   ar
    28     9     1   ar
    29    28    26    1
    30     8     4   ar
    31    22    23    1
    32    10    11    1
    33    24    25    1
@<TRIPOS>MOLECULE
*****
 30 33 0 0 0
SMALL
GASTEIGER

@<TRIPOS>ATOM
      1 C         139.3455  140.0684  166.1247 C.ar    1  UNL1        0.1367
      2 C         140.5264  139.2695  165.6590 C.ar    1  UNL1        0.0685
      3 C         141.7766  139.2267  166.4869 C.ar    1  UNL1        0.1344
      4 N         141.8457  139.9829  167.7805 N.ar    1  UNL1       -0.1980
      5 N         142.9350  140.1278  168.8014 N.ar    1  UNL1       -0.1602
      6 C         142.4272  141.0162  169.8981 C.ar    1  UNL1        0.1339
      7 C         141.0240  141.4205  169.5550 C.ar    1  UNL1        0.1250
      8 C         140.6646  140.7819  168.2462 C.ar    1  UNL1        0.1776
      9 N         139.4145  140.8246  167.4183 N.ar    1  UNL1       -0.2109
     10 N         138.0953  140.1112  165.2968 N.pl3   1  UNL1       -0.2978
     11 H         137.2457  139.7831  165.6708 H       1  UNL1        0.1536
     12 C         138.2430  142.6780  162.2735 C.ar    1  UNL1        0.0475
     13 C         138.1987  142.1353  163.6712 C.ar    1  UNL1        0.0290
     14 C         138.1396  140.6539  163.8991 C.ar    1  UNL1        0.0506
     15 C         138.1249  139.7151  162.7293 C.ar    1  UNL1        0.0144
     16 C         138.1692  140.2578  161.3315 C.ar    1  UNL1       -0.0018
     17 C         138.2283  141.7391  161.1037 C.ar    1  UNL1       -0.0083
     18 C         138.2726  142.2818  159.7060 C.3     1  UNL1        0.0323
     19 C         139.6876  146.3394  161.7668 C.3     1  UNL1        0.0949
     20 C         139.6285  144.8580  161.9946 C.2     1  UNL1        0.2266
     21 O         140.8957  144.0752  162.1715 O.2     1  UNL1       -0.2748
     22 N         138.3021  144.1594  162.0456 N.am    1  UNL1       -0.2841
     23 H         137.4703  144.6732  161.9296 H       1  UNL1        0.1548
     24 N         142.9576  138.4278  166.0211 N.pl3   1  UNL1       -0.3196
     25 H         143.1965  137.5897  166.4791 H       1  UNL1        0.1481
     26 C         143.7746  138.9057  164.8575 C.3     1  UNL1        0.0705
     27 C         143.9109  139.1706  163.3874 C.3     1  UNL1        0.0212
     28 C         145.0536  139.4687  164.3122 C.3     1  UNL1        0.0212
     29 C         140.1362  142.3076  170.3764 C.1     1  UNL1        0.1052
     30 N         139.2484  143.1947  171.1978 N.1     1  UNL1       -0.1907
@<TRIPOS>BOND
     1    19    20    1
     2    20    21    2
     3    20    22   am
     4    22    12    1
     5    12    13   ar
     6    13    14   ar
     7    14    10    1
     8    10     1    1
     9     1     2   ar
    10     2     3   ar
    11     3    24    1
    12    24    26    1
    13    26    27    1
    14    27    28    1
    15     3     4   ar
    16     4     5   ar
    17     5     6   ar
    18     6     7   ar
    19     7    29    1
    20    29    30    3
    21     7     8   ar
    22     8     9   ar
    23    14    15   ar
    24    15    16   ar
    25    16    17   ar
    26    17    18    1
    27    17    12   ar
    28     9     1   ar
    29    28    26    1
    30     8     4   ar
    31    22    23    1
    32    10    11    1
    33    24    25    1
@<TRIPOS>MOLECULE
*****
 30 33 0 0 0
SMALL
GASTEIGER

@<TRIPOS>ATOM
      1 C         143.2708  143.8083  162.4885 C.ar    1  UNL1        0.1367
      2 C         142.1591  144.5211  163.1996 C.ar    1  UNL1        0.0685
      3 C         141.0118  145.0896  162.4182 C.ar    1  UNL1        0.1344
      4 N         140.9764  144.9452  160.9256 N.ar    1  UNL1       -0.1980
      5 N         139.9835  145.3984  159.8966 N.ar    1  UNL1       -0.1602
      6 C         140.4816  144.9656  158.5496 C.ar    1  UNL1        0.1339
      7 C         141.7825  144.2450  158.7460 C.ar    1  UNL1        0.1250
      8 C         142.0883  144.2324  160.2144 C.ar    1  UNL1        0.1776
      9 N         143.2355  143.6639  160.9959 N.ar    1  UNL1       -0.2109
     10 N         144.4181  143.2397  163.2700 N.pl3   1  UNL1       -0.2978
     11 H         145.2820  143.7115  163.2898 H       1  UNL1        0.1536
     12 C         143.0893  140.5765  165.8952 C.ar    1  UNL1        0.0475
     13 C         143.2584  141.8637  165.1440 C.ar    1  UNL1        0.0290
     14 C         144.2491  141.9525  164.0212 C.ar    1  UNL1        0.0506
     15 C         145.0707  140.7538  163.6495 C.ar    1  UNL1        0.0144
     16 C         144.9016  139.4664  164.4008 C.ar    1  UNL1       -0.0018
     17 C         143.9110  139.3778  165.5235 C.ar    1  UNL1       -0.0083
     18 C         143.7420  138.0905  166.2747 C.3     1  UNL1        0.0323
     19 C         139.6817  140.0325  167.8553 C.3     1  UNL1        0.0949
     20 C         140.6725  140.1211  166.7326 C.2     1  UNL1        0.2266
     21 O         140.2370  139.8430  165.3244 O.2     1  UNL1       -0.2748
     22 N         142.0986  140.4878  167.0180 N.am    1  UNL1       -0.2841
     23 H         142.3845  140.6704  167.9423 H       1  UNL1        0.1548
     24 N         139.9000  145.8025  163.1294 N.pl3   1  UNL1       -0.3196
     25 H         139.7395  146.7586  162.9583 H       1  UNL1        0.1481
     26 C         139.0328  145.0585  164.1012 C.3     1  UNL1        0.0705
     27 C         138.5598  144.8249  165.5054 C.3     1  UNL1        0.0212
     28 C         138.0037  144.0035  164.3802 C.3     1  UNL1        0.0212
     29 C         142.6288  143.6427  157.6639 C.1     1  UNL1        0.1052
     30 N         143.4752  143.0404  156.5818 N.1     1  UNL1       -0.1907
@<TRIPOS>BOND
     1    19    20    1
     2    20    21    2
     3    20    22   am
     4    22    12    1
     5    12    13   ar
     6    13    14   ar
     7    14    10    1
     8    10     1    1
     9     1     2   ar
    10     2     3   ar
    11     3    24    1
    12    24    26    1
    13    26    27    1
    14    27    28    1
    15     3     4   ar
    16     4     5   ar
    17     5     6   ar
    18     6     7   ar
    19     7    29    1
    20    29    30    3
    21     7     8   ar
    22     8     9   ar
    23    14    15   ar
    24    15    16   ar
    25    16    17   ar
    26    17    18    1
    27    17    12   ar
    28     9     1   ar
    29    28    26    1
    30     8     4   ar
    31    22    23    1
    32    10    11    1
    33    24    25    1
@<TRIPOS>MOLECULE
*****
 30 33 0 0 0
SMALL
GASTEIGER

@<TRIPOS>ATOM
      1 C         138.4845  139.8602  162.7910 C.ar    1  UNL1        0.1367
      2 C         138.1302  141.2662  163.1748 C.ar    1  UNL1        0.0685
      3 C         138.0173  142.3261  162.1192 C.ar    1  UNL1        0.1344
      4 N         138.2588  141.9797  160.6799 N.ar    1  UNL1       -0.1980
      5 N         138.2200  142.8059  159.4285 N.ar    1  UNL1       -0.1602
      6 C         138.5503  141.9104  158.2714 C.ar    1  UNL1        0.1339
      7 C         138.7933  140.5307  158.8076 C.ar    1  UNL1        0.1250
      8 C         138.6132  140.5735  160.2961 C.ar    1  UNL1        0.1776
      9 N         138.7260  139.5138  161.3517 N.ar    1  UNL1       -0.2109
     10 N         138.5974  138.8004  163.8466 N.pl3   1  UNL1       -0.2978
     11 H         138.5706  137.8492  163.5940 H       1  UNL1        0.1536
     12 C         139.9200  140.6111  167.1211 C.ar    1  UNL1        0.0475
     13 C         139.7663  140.2216  165.6808 C.ar    1  UNL1        0.0290
     14 C         138.7511  139.1899  165.2869 C.ar    1  UNL1        0.0506
     15 C         137.8896  138.5478  166.3335 C.ar    1  UNL1        0.0144
     16 C         138.0433  138.9373  167.7740 C.ar    1  UNL1       -0.0018
     17 C         139.0584  139.9689  168.1677 C.ar    1  UNL1       -0.0083
     18 C         139.2121  140.3584  169.6081 C.3     1  UNL1        0.0323
     19 C         143.3176  142.2488  168.3557 C.3     1  UNL1        0.0949
     20 C         142.3023  141.2172  167.9619 C.2     1  UNL1        0.2266
     21 O         142.6542  139.7601  168.0152 O.2     1  UNL1       -0.2748
     22 N         140.9352  141.6428  167.5148 N.am    1  UNL1       -0.2841
     23 H         140.7042  142.5992  167.4798 H       1  UNL1        0.1548
     24 N         137.6630  143.7322  162.5030 N.pl3   1  UNL1       -0.3196
     25 H         137.0715  144.2661  161.9249 H       1  UNL1        0.1481
     26 C         138.2099  144.3248  163.7678 C.3     1  UNL1        0.0705
     27 C         139.3304  144.9865  164.5139 C.3     1  UNL1        0.0212
     28 C         138.0366  144.6897  165.2124 C.3     1  UNL1        0.0212
     29 C         139.1532  139.3207  157.9974 C.1     1  UNL1        0.1052
     30 N         139.5132  138.1107  157.1873 N.1     1  UNL1       -0.1907
@<TRIPOS>BOND
     1    19    20    1
     2    20    21    2
     3    20    22   am
     4    22    12    1
     5    12    13   ar
     6    13    14   ar
     7    14    10    1
     8    10     1    1
     9     1     2   ar
    10     2     3   ar
    11     3    24    1
    12    24    26    1
    13    26    27    1
    14    27    28    1
    15     3     4   ar
    16     4     5   ar
    17     5     6   ar
    18     6     7   ar
    19     7    29    1
    20    29    30    3
    21     7     8   ar
    22     8     9   ar
    23    14    15   ar
    24    15    16   ar
    25    16    17   ar
    26    17    18    1
    27    17    12   ar
    28     9     1   ar
    29    28    26    1
    30     8     4   ar
    31    22    23    1
    32    10    11    1
    33    24    25    1
@<TRIPOS>MOLECULE
*****
 30 33 0 0 0
SMALL
GASTEIGER

@<TRIPOS>ATOM
      1 C         138.6825  143.2172  161.7594 C.ar    1  UNL1        0.1367
      2 C         139.6947  143.9979  162.5441 C.ar    1  UNL1        0.0685
      3 C         140.7565  144.7805  161.8296 C.ar    1  UNL1        0.1344
      4 N         140.8058  144.7823  160.3304 N.ar    1  UNL1       -0.1980
      5 N         141.7287  145.4542  159.3575 N.ar    1  UNL1       -0.1602
      6 C         141.2868  145.0888  157.9714 C.ar    1  UNL1        0.1339
      7 C         140.0907  144.1910  158.0878 C.ar    1  UNL1        0.1250
      8 C         139.7935  144.0016  159.5458 C.ar    1  UNL1        0.1776
      9 N         138.7318  143.2191  160.2602 N.ar    1  UNL1       -0.2109
     10 N         137.6207  142.4346  162.4739 N.pl3   1  UNL1       -0.2978
     11 H         136.6951  142.7692  162.4984 H       1  UNL1        0.1536
     12 C         138.4735  139.8027  165.3193 C.ar    1  UNL1        0.0475
     13 C         138.1249  141.0950  164.6422 C.ar    1  UNL1        0.0290
     14 C         137.9694  141.1424  163.1510 C.ar    1  UNL1        0.0506
     15 C         138.1625  139.8974  162.3369 C.ar    1  UNL1        0.0144
     16 C         138.5111  138.6050  163.0140 C.ar    1  UNL1       -0.0018
     17 C         138.6666  138.5577  164.5051 C.ar    1  UNL1       -0.0083
     18 C         139.0152  137.2654  165.1822 C.3     1  UNL1        0.0323
     19 C         140.0894  140.0953  168.9322 C.3     1  UNL1        0.0949
     20 C         139.9338  140.1425  167.4410 C.2     1  UNL1        0.2266
     21 O         141.0830  140.5770  166.5805 O.2     1  UNL1       -0.2748
     22 N         138.6290  139.7554  166.8104 N.am    1  UNL1       -0.2841
     23 H         137.8747  139.4702  167.3752 H       1  UNL1        0.1548
     24 N         141.7688  145.5611  162.6144 N.pl3   1  UNL1       -0.3196
     25 H         141.6224  146.5184  162.7919 H       1  UNL1        0.1481
     26 C         143.0041  144.8834  163.1287 C.3     1  UNL1        0.0705
     27 C         143.8838  144.4818  164.2754 C.3     1  UNL1        0.0212
     28 C         144.2641  144.1109  162.8726 C.3     1  UNL1        0.0212
     29 C         139.3262  143.5885  156.9465 C.1     1  UNL1        0.1052
     30 N         138.5617  142.9860  155.8052 N.1     1  UNL1       -0.1907
@<TRIPOS>BOND
     1    19    20    1
     2    20    21    2
     3    20    22   am
     4    22    12    1
     5    12    13   ar
     6    13    14   ar
     7    14    10    1
     8    10     1    1
     9     1     2   ar
    10     2     3   ar
    11     3    24    1
    12    24    26    1
    13    26    27    1
    14    27    28    1
    15     3     4   ar
    16     4     5   ar
    17     5     6   ar
    18     6     7   ar
    19     7    29    1
    20    29    30    3
    21     7     8   ar
    22     8     9   ar
    23    14    15   ar
    24    15    16   ar
    25    16    17   ar
    26    17    18    1
    27    17    12   ar
    28     9     1   ar
    29    28    26    1
    30     8     4   ar
    31    22    23    1
    32    10    11    1
    33    24    25    1
@<TRIPOS>MOLECULE
*****
 30 33 0 0 0
SMALL
GASTEIGER

@<TRIPOS>ATOM
      1 C         139.9371  141.1796  166.1751 C.ar    1  UNL1        0.1367
      2 C         140.7999  140.1980  165.4390 C.ar    1  UNL1        0.0685
      3 C         141.8505  139.4221  166.1767 C.ar    1  UNL1        0.1344
      4 N         142.0383  139.6279  167.6506 N.ar    1  UNL1       -0.1980
      5 N         142.9849  139.0115  168.6375 N.ar    1  UNL1       -0.1602
      6 C         142.7071  139.6122  169.9836 C.ar    1  UNL1        0.1339
      7 C         141.5888  140.5998  169.8286 C.ar    1  UNL1        0.1250
      8 C         141.1754  140.6095  168.3868 C.ar    1  UNL1        0.1776
      9 N         140.1248  141.3854  167.6490 N.ar    1  UNL1       -0.2109
     10 N         138.8864  141.9555  165.4374 N.pl3   1  UNL1       -0.2978
     11 H         137.9403  141.8731  165.6971 H       1  UNL1        0.1536
     12 C         139.0697  143.5554  161.8101 C.ar    1  UNL1        0.0475
     13 C         138.6789  142.6540  162.9435 C.ar    1  UNL1        0.0290
     14 C         139.2772  142.8569  164.3040 C.ar    1  UNL1        0.0506
     15 C         140.2665  143.9614  164.5310 C.ar    1  UNL1        0.0144
     16 C         140.6574  144.8629  163.3975 C.ar    1  UNL1       -0.0018
     17 C         140.0590  144.6599  162.0372 C.ar    1  UNL1       -0.0083
     18 C         140.4499  145.5613  160.9038 C.3     1  UNL1        0.0323
     19 C         138.4908  142.1691  158.1369 C.3     1  UNL1        0.0949
     20 C         139.0892  142.3721  159.4973 C.2     1  UNL1        0.2266
     21 O         140.3055  141.5948  159.9052 O.2     1  UNL1       -0.2748
     22 N         138.4713  143.3524  160.4497 N.am    1  UNL1       -0.2841
     23 H         137.6730  143.8626  160.1819 H       1  UNL1        0.1548
     24 N         142.7134  138.4405  165.4405 N.pl3   1  UNL1       -0.3196
     25 H         142.6375  137.4778  165.6322 H       1  UNL1        0.1481
     26 C         143.6918  138.9256  164.4123 C.3     1  UNL1        0.0705
     27 C         144.9686  139.6325  164.0657 C.3     1  UNL1        0.0212
     28 C         144.1097  139.0590  162.9779 C.3     1  UNL1        0.0212
     29 C         140.9891  141.4317  170.9234 C.1     1  UNL1        0.1052
     30 N         140.3895  142.2635  172.0181 N.1     1  UNL1       -0.1907
@<TRIPOS>BOND
     1    19    20    1
     2    20    21    2
     3    20    22   am
     4    22    12    1
     5    12    13   ar
     6    13    14   ar
     7    14    10    1
     8    10     1    1
     9     1     2   ar
    10     2     3   ar
    11     3    24    1
    12    24    26    1
    13    26    27    1
    14    27    28    1
    15     3     4   ar
    16     4     5   ar
    17     5     6   ar
    18     6     7   ar
    19     7    29    1
    20    29    30    3
    21     7     8   ar
    22     8     9   ar
    23    14    15   ar
    24    15    16   ar
    25    16    17   ar
    26    17    18    1
    27    17    12   ar
    28     9     1   ar
    29    28    26    1
    30     8     4   ar
    31    22    23    1
    32    10    11    1
    33    24    25    1
@<TRIPOS>MOLECULE
*****
 30 33 0 0 0
SMALL
GASTEIGER

@<TRIPOS>ATOM
      1 C         143.4613  139.4457  162.9065 C.ar    1  UNL1        0.1367
      2 C         143.9981  140.8312  163.1109 C.ar    1  UNL1        0.0685
      3 C         144.2859  141.7063  161.9270 C.ar    1  UNL1        0.1344
      4 N         144.0370  141.1957  160.5388 N.ar    1  UNL1       -0.1980
      5 N         144.2242  141.8240  159.1897 N.ar    1  UNL1       -0.1602
      6 C         143.8031  140.8266  158.1515 C.ar    1  UNL1        0.1339
      7 C         143.3556  139.5819  158.8589 C.ar    1  UNL1        0.1250
      8 C         143.5001  139.8100  160.3344 C.ar    1  UNL1        0.1776
      9 N         143.2123  138.9350  161.5183 N.ar    1  UNL1       -0.2109
     10 N         143.1735  138.5706  164.0904 N.pl3   1  UNL1       -0.2978
     11 H         143.8699  137.9675  164.4377 H       1  UNL1        0.1536
     12 C         140.1467  139.7562  166.3672 C.ar    1  UNL1        0.0475
     13 C         141.4956  139.7124  165.7126 C.ar    1  UNL1        0.0290
     14 C         141.8246  138.6143  164.7450 C.ar    1  UNL1        0.0506
     15 C         140.8045  137.5601  164.4320 C.ar    1  UNL1        0.0144
     16 C         139.4555  137.6039  165.0867 C.ar    1  UNL1       -0.0018
     17 C         139.1267  138.7018  166.0542 C.ar    1  UNL1       -0.0083
     18 C         137.7778  138.7456  166.7088 C.3     1  UNL1        0.0323
     19 C         139.8249  141.7964  169.7559 C.3     1  UNL1        0.0949
     20 C         140.1537  140.6984  168.7883 C.2     1  UNL1        0.2266
     21 O         140.8183  139.4446  169.2743 O.2     1  UNL1       -0.2748
     22 N         139.8179  140.8542  167.3347 N.am    1  UNL1       -0.2841
     23 H         139.3817  141.6772  167.0157 H       1  UNL1        0.1548
     24 N         144.8228  143.0920  162.1315 N.pl3   1  UNL1       -0.3196
     25 H         145.5177  143.4445  161.5298 H       1  UNL1        0.1481
     26 C         144.3008  143.9406  163.2528 C.3     1  UNL1        0.0705
     27 C         143.5776  145.1666  163.7262 C.3     1  UNL1        0.0212
     28 C         144.1200  144.1845  164.7218 C.3     1  UNL1        0.0212
     29 C         142.8520  138.3291  158.2056 C.1     1  UNL1        0.1052
     30 N         142.3484  137.0763  157.5523 N.1     1  UNL1       -0.1907
@<TRIPOS>BOND
     1    19    20    1
     2    20    21    2
     3    20    22   am
     4    22    12    1
     5    12    13   ar
     6    13    14   ar
     7    14    10    1
     8    10     1    1
     9     1     2   ar
    10     2     3   ar
    11     3    24    1
    12    24    26    1
    13    26    27    1
    14    27    28    1
    15     3     4   ar
    16     4     5   ar
    17     5     6   ar
    18     6     7   ar
    19     7    29    1
    20    29    30    3
    21     7     8   ar
    22     8     9   ar
    23    14    15   ar
    24    15    16   ar
    25    16    17   ar
    26    17    18    1
    27    17    12   ar
    28     9     1   ar
    29    28    26    1
    30     8     4   ar
    31    22    23    1
    32    10    11    1
    33    24    25    1
@<TRIPOS>MOLECULE
*****
 30 33 0 0 0
SMALL
GASTEIGER

@<TRIPOS>ATOM
      1 C         142.8933  140.8235  165.5903 C.ar    1  UNL1        0.1367
      2 C         141.7930  139.8894  165.1822 C.ar    1  UNL1        0.0685
      3 C         140.6415  139.6362  166.1097 C.ar    1  UNL1        0.1344
      4 N         140.5905  140.3173  167.4452 N.ar    1  UNL1       -0.1980
      5 N         139.5902  140.2636  168.5616 N.ar    1  UNL1       -0.1602
      6 C         140.0724  141.1646  169.6597 C.ar    1  UNL1        0.1339
      7 C         141.3707  141.7751  169.2218 C.ar    1  UNL1        0.1250
      8 C         141.6909  141.2515  167.8532 C.ar    1  UNL1        0.1776
      9 N         142.8423  141.5045  166.9257 N.ar    1  UNL1       -0.2109
     10 N         144.0448  141.0766  164.6628 N.pl3   1  UNL1       -0.2978
     11 H         144.9629  140.8651  164.9487 H       1  UNL1        0.1536
     12 C         142.8311  143.5361  161.7943 C.ar    1  UNL1        0.0475
     13 C         143.0784  142.9607  163.1573 C.ar    1  UNL1        0.0290
     14 C         143.7975  141.6520  163.2998 C.ar    1  UNL1        0.0506
     15 C         144.2692  140.9186  162.0793 C.ar    1  UNL1        0.0144
     16 C         144.0218  141.4940  160.7162 C.ar    1  UNL1       -0.0018
     17 C         143.3028  142.8027  160.5738 C.ar    1  UNL1       -0.0083
     18 C         143.0555  143.3780  159.2108 C.3     1  UNL1        0.0323
     19 C         139.9059  146.2162  161.6953 C.3     1  UNL1        0.0949
     20 C         140.6250  144.9075  161.8378 C.2     1  UNL1        0.2266
     21 O         139.8569  143.6616  162.1661 O.2     1  UNL1       -0.2748
     22 N         142.1121  144.8448  161.6519 N.am    1  UNL1       -0.2841
     23 H         142.6162  145.6625  161.4364 H       1  UNL1        0.1548
     24 N         139.5411  138.7020  165.7016 N.pl3   1  UNL1       -0.3196
     25 H         139.0272  138.2174  166.3873 H       1  UNL1        0.1481
     26 C         139.2238  138.5063  164.2487 C.3     1  UNL1        0.0705
     27 C         138.5139  138.9475  163.0031 C.3     1  UNL1        0.0212
     28 C         139.3840  137.7259  162.9777 C.3     1  UNL1        0.0212
     29 C         142.2026  142.7399  170.0137 C.1     1  UNL1        0.1052
     30 N         143.0346  143.7047  170.8055 N.1     1  UNL1       -0.1907
@<TRIPOS>BOND
     1    19    20    1
     2    20    21    2
     3    20    22   am
     4    22    12    1
     5    12    13   ar
     6    13    14   ar
     7    14    10    1
     8    10     1    1
     9     1     2   ar
    10     2     3   ar
    11     3    24    1
    12    24    26    1
    13    26    27    1
    14    27    28    1
    15     3     4   ar
    16     4     5   ar
    17     5     6   ar
    18     6     7   ar
    19     7    29    1
    20    29    30    3
    21     7     8   ar
    22     8     9   ar
    23    14    15   ar
    24    15    16   ar
    25    16    17   ar
    26    17    18    1
    27    17    12   ar
    28     9     1   ar
    29    28    26    1
    30     8     4   ar
    31    22    23    1
    32    10    11    1
    33    24    25    1
@<TRIPOS>MOLECULE
*****
 30 33 0 0 0
SMALL
GASTEIGER

@<TRIPOS>ATOM
      1 C         144.3760  143.0131  161.0241 C.ar    1  UNL1        0.1367
      2 C         144.8461  142.4282  159.7254 C.ar    1  UNL1        0.0685
      3 C         144.0450  142.6379  158.4747 C.ar    1  UNL1        0.1344
      4 N         142.7738  143.4327  158.5228 N.ar    1  UNL1       -0.1980
      5 N         141.7812  143.8036  157.4610 N.ar    1  UNL1       -0.1602
      6 C         140.6976  144.6177  158.1037 C.ar    1  UNL1        0.1339
      7 C         141.0205  144.7501  159.5625 C.ar    1  UNL1        0.1250
      8 C         142.3037  144.0177  159.8215 C.ar    1  UNL1        0.1776
      9 N         143.1048  143.8079  161.0722 N.ar    1  UNL1       -0.2109
     10 N         145.1770  142.8033  162.2749 N.pl3   1  UNL1       -0.2978
     11 H         146.1397  143.0092  162.2832 H       1  UNL1        0.1536
     12 C         143.3960  140.3266  164.8135 C.ar    1  UNL1        0.0475
     13 C         144.0618  140.8501  163.5755 C.ar    1  UNL1        0.0290
     14 C         144.5112  142.2799  163.5129 C.ar    1  UNL1        0.0506
     15 C         144.2948  143.1862  164.6884 C.ar    1  UNL1        0.0144
     16 C         143.6289  142.6627  165.9265 C.ar    1  UNL1       -0.0018
     17 C         143.1796  141.2330  165.9890 C.ar    1  UNL1       -0.0083
     18 C         142.5138  140.7096  167.2270 C.3     1  UNL1        0.0323
     19 C         141.1429  137.0834  164.4204 C.3     1  UNL1        0.0949
     20 C         141.5923  138.5131  164.3580 C.2     1  UNL1        0.2266
     21 O         140.6874  139.5590  163.7774 O.2     1  UNL1       -0.2748
     22 N         142.9467  138.8969  164.8761 N.am    1  UNL1       -0.2841
     23 H         143.5406  138.2104  165.2571 H       1  UNL1        0.1548
     24 N         144.5152  142.0529  157.1759 N.pl3   1  UNL1       -0.3196
     25 H         143.8802  141.5808  156.5902 H       1  UNL1        0.1481
     26 C         145.9528  142.1873  156.7697 C.3     1  UNL1        0.0705
     27 C         147.3181  142.7659  156.9959 C.3     1  UNL1        0.0212
     28 C         147.0777  141.8412  155.8396 C.3     1  UNL1        0.0212
     29 C         140.2036  145.4857  160.5831 C.1     1  UNL1        0.1052
     30 N         139.3868  146.2213  161.6037 N.1     1  UNL1       -0.1907
@<TRIPOS>BOND
     1    19    20    1
     2    20    21    2
     3    20    22   am
     4    22    12    1
     5    12    13   ar
     6    13    14   ar
     7    14    10    1
     8    10     1    1
     9     1     2   ar
    10     2     3   ar
    11     3    24    1
    12    24    26    1
    13    26    27    1
    14    27    28    1
    15     3     4   ar
    16     4     5   ar
    17     5     6   ar
    18     6     7   ar
    19     7    29    1
    20    29    30    3
    21     7     8   ar
    22     8     9   ar
    23    14    15   ar
    24    15    16   ar
    25    16    17   ar
    26    17    18    1
    27    17    12   ar
    28     9     1   ar
    29    28    26    1
    30     8     4   ar
    31    22    23    1
    32    10    11    1
    33    24    25    1
