@<TRIPOS>MOLECULE
*****
 27 31 0 0 0
SMALL
GASTEIGER

@<TRIPOS>ATOM
      1 CL        144.7088  143.2429  165.4394 Cl      1  UNL1       -0.0823
      2 C         143.5205  142.5276  166.0105 C.ar    1  UNL1        0.0575
      3 C         142.5938  141.7715  165.1053 C.ar    1  UNL1        0.0129
      4 C         141.4055  141.0562  165.6765 C.ar    1  UNL1        0.0181
      5 C         141.1438  141.0970  167.1529 C.ar    1  UNL1        0.0623
      6 C         142.0705  141.8532  168.0581 C.ar    1  UNL1       -0.0047
      7 C         143.2588  142.5685  167.4869 C.ar    1  UNL1        0.0086
      8 C         141.8088  141.8941  169.5346 C.3     1  UNL1        0.0358
      9 C         140.6205  141.1788  170.1058 C.3     1  UNL1        0.0709
     10 C         139.6938  140.4226  169.2004 C.ar    1  UNL1        0.1471
     11 N         138.4517  139.6273  169.4733 N.ar    1  UNL1       -0.1333
     12 N         137.9456  139.0949  168.1654 N.ar    1  UNL1       -0.1333
     13 C         138.8750  139.5612  167.0844 C.ar    1  UNL1        0.1464
     14 N         139.9555  140.3818  167.7240 N.ar    1  UNL1       -0.2810
     15 C         138.7466  139.2598  165.6206 C.3     1  UNL1        0.0594
     16 C         139.2350  137.9490  165.0791 C.3     1  UNL1        0.0112
     17 C         139.1066  137.6475  163.6152 C.3     1  UNL1        0.0440
     18 C         138.4897  138.6569  162.6930 C.3     1  UNL1        0.1676
     19 C         138.0013  139.9677  163.2345 C.3     1  UNL1        0.0440
     20 C         138.1297  140.2692  164.6982 C.3     1  UNL1        0.0112
     21 O         138.3613  138.3555  161.2292 O.3     1  UNL1       -0.4640
     22 C         138.7439  139.3912  160.2139 C.ar    1  UNL1        0.2247
     23 C         140.1638  139.8668  160.1260 C.ar    1  UNL1        0.0577
     24 C         140.5464  140.9025  159.1106 C.ar    1  UNL1        0.0064
     25 C         139.5091  141.4627  158.1831 C.ar    1  UNL1        0.0209
     26 C         138.0892  140.9871  158.2710 C.ar    1  UNL1        0.1021
     27 N         137.7066  139.9514  159.2864 N.ar    1  UNL1       -0.2101
@<TRIPOS>BOND
     1     1     2    1
     2     2     3   ar
     3     3     4   ar
     4     4     5   ar
     5     5     6   ar
     6     6     7   ar
     7     6     8    1
     8     8     9    1
     9     9    10    1
    10    10    11   ar
    11    11    12   ar
    12    12    13   ar
    13    15    13    1
    14    15    16    1
    15    16    17    1
    16    17    18    1
    17    18    21    1
    18    21    22    1
    19    22    23   ar
    20    23    24   ar
    21    24    25   ar
    22    25    26   ar
    23    26    27   ar
    24    18    19    1
    25    19    20    1
    26    13    14   ar
    27     7     2   ar
    28    14    10   ar
    29    14     5    1
    30    20    15    1
    31    27    22   ar
@<TRIPOS>MOLECULE
*****
 27 31 0 0 0
SMALL
GASTEIGER

@<TRIPOS>ATOM
      1 CL        144.6248  143.2547  165.6238 Cl      1  UNL1       -0.0823
      2 C         143.4286  142.5215  166.1543 C.ar    1  UNL1        0.0575
      3 C         142.5569  141.7343  165.2214 C.ar    1  UNL1        0.0129
      4 C         141.3607  141.0010  165.7519 C.ar    1  UNL1        0.0181
      5 C         141.0361  141.0550  167.2153 C.ar    1  UNL1        0.0623
      6 C         141.9078  141.8422  168.1483 C.ar    1  UNL1       -0.0047
      7 C         143.1040  142.5755  167.6178 C.ar    1  UNL1        0.0086
      8 C         141.5833  141.8962  169.6118 C.3     1  UNL1        0.0358
      9 C         140.3871  141.1630  170.1423 C.3     1  UNL1        0.0709
     10 C         139.5154  140.3758  169.2093 C.ar    1  UNL1        0.1471
     11 N         138.2797  139.5576  169.4406 N.ar    1  UNL1       -0.1333
     12 N         137.8405  138.9979  168.1201 N.ar    1  UNL1       -0.1333
     13 C         138.8048  139.4702  167.0727 C.ar    1  UNL1        0.1464
     14 N         139.8399  140.3218  167.7459 N.ar    1  UNL1       -0.2810
     15 C         138.7445  139.1476  165.6090 C.3     1  UNL1        0.0594
     16 C         139.1986  137.8051  165.1176 C.3     1  UNL1        0.0112
     17 C         139.1384  137.4824  163.6539 C.3     1  UNL1        0.0440
     18 C         138.6240  138.5023  162.6817 C.3     1  UNL1        0.1676
     19 C         138.1698  139.8447  163.1731 C.3     1  UNL1        0.0440
     20 C         138.2300  140.1674  164.6367 C.3     1  UNL1        0.0112
     21 O         138.5637  138.1797  161.2180 O.3     1  UNL1       -0.4640
     22 C         139.7777  138.3693  160.3576 C.ar    1  UNL1        0.2247
     23 C         141.1295  138.5184  160.9903 C.ar    1  UNL1        0.0577
     24 C         142.3435  138.7081  160.1300 C.ar    1  UNL1        0.0064
     25 C         142.2057  138.7487  158.6369 C.ar    1  UNL1        0.0209
     26 C         140.8539  138.5996  158.0042 C.ar    1  UNL1        0.1021
     27 N         139.6399  138.4099  158.8646 N.ar    1  UNL1       -0.2101
@<TRIPOS>BOND
     1     1     2    1
     2     2     3   ar
     3     3     4   ar
     4     4     5   ar
     5     5     6   ar
     6     6     7   ar
     7     6     8    1
     8     8     9    1
     9     9    10    1
    10    10    11   ar
    11    11    12   ar
    12    12    13   ar
    13    15    13    1
    14    15    16    1
    15    16    17    1
    16    17    18    1
    17    18    21    1
    18    21    22    1
    19    22    23   ar
    20    23    24   ar
    21    24    25   ar
    22    25    26   ar
    23    26    27   ar
    24    18    19    1
    25    19    20    1
    26    13    14   ar
    27     7     2   ar
    28    14    10   ar
    29    14     5    1
    30    20    15    1
    31    27    22   ar
@<TRIPOS>MOLECULE
*****
 27 31 0 0 0
SMALL
GASTEIGER

@<TRIPOS>ATOM
      1 CL        138.6577  144.6987  164.1275 Cl      1  UNL1       -0.0823
      2 C         139.4717  143.6578  164.8374 C.ar    1  UNL1        0.0575
      3 C         140.1164  142.5499  164.0584 C.ar    1  UNL1        0.0129
      4 C         140.9304  141.5090  164.7683 C.ar    1  UNL1        0.0181
      5 C         141.0996  141.5761  166.2572 C.ar    1  UNL1        0.0623
      6 C         140.4549  142.6840  167.0361 C.ar    1  UNL1       -0.0047
      7 C         139.6409  143.7248  166.3262 C.ar    1  UNL1        0.0086
      8 C         140.6242  142.7510  168.5251 C.3     1  UNL1        0.0358
      9 C         141.4382  141.7102  169.2350 C.3     1  UNL1        0.0709
     10 C         142.0829  140.6022  168.4560 C.ar    1  UNL1        0.1471
     11 N         142.9362  139.4431  168.8782 N.ar    1  UNL1       -0.1333
     12 N         143.2943  138.6596  167.6502 N.ar    1  UNL1       -0.1333
     13 C         142.6623  139.3346  166.4691 C.ar    1  UNL1        0.1464
     14 N         141.9136  140.5352  166.9671 N.ar    1  UNL1       -0.2810
     15 C         142.7615  138.8875  165.0407 C.3     1  UNL1        0.0594
     16 C         141.6877  138.0234  164.4490 C.3     1  UNL1        0.0112
     17 C         141.7868  137.5762  163.0206 C.3     1  UNL1        0.0440
     18 C         142.9599  137.9932  162.1839 C.3     1  UNL1        0.1676
     19 C         144.0338  138.8573  162.7756 C.3     1  UNL1        0.0440
     20 C         143.9346  139.3044  164.2040 C.3     1  UNL1        0.0112
     21 O         143.0591  137.5461  160.7556 O.3     1  UNL1       -0.4640
     22 C         142.7837  138.5162  159.6452 C.ar    1  UNL1        0.2247
     23 C         141.3878  138.6796  159.1210 C.ar    1  UNL1        0.0577
     24 C         141.1124  139.6497  158.0106 C.ar    1  UNL1        0.0064
     25 C         142.2328  140.4565  157.4244 C.ar    1  UNL1        0.0209
     26 C         143.6287  140.2931  157.9485 C.ar    1  UNL1        0.1021
     27 N         143.9041  139.3230  159.0589 N.ar    1  UNL1       -0.2101
@<TRIPOS>BOND
     1     1     2    1
     2     2     3   ar
     3     3     4   ar
     4     4     5   ar
     5     5     6   ar
     6     6     7   ar
     7     6     8    1
     8     8     9    1
     9     9    10    1
    10    10    11   ar
    11    11    12   ar
    12    12    13   ar
    13    15    13    1
    14    15    16    1
    15    16    17    1
    16    17    18    1
    17    18    21    1
    18    21    22    1
    19    22    23   ar
    20    23    24   ar
    21    24    25   ar
    22    25    26   ar
    23    26    27   ar
    24    18    19    1
    25    19    20    1
    26    13    14   ar
    27     7     2   ar
    28    14    10   ar
    29    14     5    1
    30    20    15    1
    31    27    22   ar
@<TRIPOS>MOLECULE
*****
 27 31 0 0 0
SMALL
GASTEIGER

@<TRIPOS>ATOM
      1 CL        144.1874  137.6003  161.2146 Cl      1  UNL1       -0.0823
      2 C         143.0074  138.5164  161.3504 C.ar    1  UNL1        0.0575
      3 C         142.3314  138.6767  162.6797 C.ar    1  UNL1        0.0129
      4 C         141.1514  139.5928  162.8155 C.ar    1  UNL1        0.0181
      5 C         140.6474  140.3486  161.6219 C.ar    1  UNL1        0.0623
      6 C         141.3235  140.1883  160.2925 C.ar    1  UNL1       -0.0047
      7 C         142.5034  139.2722  160.1568 C.ar    1  UNL1        0.0086
      8 C         140.8195  140.9442  159.0988 C.3     1  UNL1        0.0358
      9 C         139.6395  141.8603  159.2346 C.3     1  UNL1        0.0709
     10 C         138.9635  142.0205  160.5640 C.ar    1  UNL1        0.1471
     11 N         137.7887  142.8451  160.9996 N.ar    1  UNL1       -0.1333
     12 N         137.5665  142.5989  162.4625 N.ar    1  UNL1       -0.1333
     13 C         138.6041  141.6222  162.9310 C.ar    1  UNL1        0.1464
     14 N         139.4675  141.2647  161.7576 N.ar    1  UNL1       -0.2810
     15 C         138.7523  141.0954  164.3276 C.3     1  UNL1        0.0594
     16 C         139.6206  141.8188  165.3138 C.3     1  UNL1        0.0112
     17 C         139.7688  141.2921  166.7105 C.3     1  UNL1        0.0440
     18 C         139.0487  140.0419  167.1209 C.3     1  UNL1        0.1676
     19 C         138.1804  139.3185  166.1346 C.3     1  UNL1        0.0440
     20 C         138.0321  139.8452  164.7380 C.3     1  UNL1        0.0112
     21 O         139.1969  139.5151  168.5174 O.3     1  UNL1       -0.4640
     22 C         140.1760  140.1512  169.4590 C.ar    1  UNL1        0.2247
     23 C         141.5892  139.6522  169.5214 C.ar    1  UNL1        0.0577
     24 C         142.5683  140.2884  170.4630 C.ar    1  UNL1        0.0064
     25 C         142.1343  141.4236  171.3422 C.ar    1  UNL1        0.0209
     26 C         140.7211  141.9226  171.2798 C.ar    1  UNL1        0.1021
     27 N         139.7420  141.2864  170.3382 N.ar    1  UNL1       -0.2101
@<TRIPOS>BOND
     1     1     2    1
     2     2     3   ar
     3     3     4   ar
     4     4     5   ar
     5     5     6   ar
     6     6     7   ar
     7     6     8    1
     8     8     9    1
     9     9    10    1
    10    10    11   ar
    11    11    12   ar
    12    12    13   ar
    13    15    13    1
    14    15    16    1
    15    16    17    1
    16    17    18    1
    17    18    21    1
    18    21    22    1
    19    22    23   ar
    20    23    24   ar
    21    24    25   ar
    22    25    26   ar
    23    26    27   ar
    24    18    19    1
    25    19    20    1
    26    13    14   ar
    27     7     2   ar
    28    14    10   ar
    29    14     5    1
    30    20    15    1
    31    27    22   ar
@<TRIPOS>MOLECULE
*****
 27 31 0 0 0
SMALL
GASTEIGER

@<TRIPOS>ATOM
      1 CL        139.9766  146.0784  162.2620 Cl      1  UNL1       -0.0823
      2 C         139.8005  144.5926  162.1562 C.ar    1  UNL1        0.0575
      3 C         139.8389  143.7429  163.3918 C.ar    1  UNL1        0.0129
      4 C         139.6629  142.2571  163.2860 C.ar    1  UNL1        0.0181
      5 C         139.4485  141.6208  161.9447 C.ar    1  UNL1        0.0623
      6 C         139.4101  142.4704  160.7091 C.ar    1  UNL1       -0.0047
      7 C         139.5861  143.9563  160.8149 C.ar    1  UNL1        0.0086
      8 C         139.1957  141.8342  159.3677 C.3     1  UNL1        0.0358
      9 C         139.0197  140.3483  159.2620 C.3     1  UNL1        0.0709
     10 C         139.0581  139.4987  160.4976 C.ar    1  UNL1        0.1471
     11 N         138.9162  138.0197  160.7034 N.ar    1  UNL1       -0.1333
     12 N         139.0430  137.7418  162.1720 N.ar    1  UNL1       -0.1333
     13 C         139.2631  139.0491  162.8738 C.ar    1  UNL1        0.1464
     14 N         139.2725  140.1349  161.8389 N.ar    1  UNL1       -0.2810
     15 C         139.4425  139.2376  164.3510 C.3     1  UNL1        0.0594
     16 C         138.2474  139.2387  165.2575 C.3     1  UNL1        0.0112
     17 C         138.4266  139.4271  166.7348 C.3     1  UNL1        0.0440
     18 C         139.8011  139.6145  167.3056 C.3     1  UNL1        0.1676
     19 C         140.9962  139.6134  166.3992 C.3     1  UNL1        0.0440
     20 C         140.8169  139.4250  164.9219 C.3     1  UNL1        0.0112
     21 O         139.9804  139.8030  168.7829 O.3     1  UNL1       -0.4640
     22 C         140.8426  140.9173  169.2976 C.ar    1  UNL1        0.2247
     23 C         140.2808  142.3021  169.4264 C.ar    1  UNL1        0.0577
     24 C         141.1430  143.4164  169.9410 C.ar    1  UNL1        0.0064
     25 C         142.5670  143.1460  170.3269 C.ar    1  UNL1        0.0209
     26 C         143.1288  141.7612  170.1981 C.ar    1  UNL1        0.1021
     27 N         142.2666  140.6469  169.6835 N.ar    1  UNL1       -0.2101
@<TRIPOS>BOND
     1     1     2    1
     2     2     3   ar
     3     3     4   ar
     4     4     5   ar
     5     5     6   ar
     6     6     7   ar
     7     6     8    1
     8     8     9    1
     9     9    10    1
    10    10    11   ar
    11    11    12   ar
    12    12    13   ar
    13    15    13    1
    14    15    16    1
    15    16    17    1
    16    17    18    1
    17    18    21    1
    18    21    22    1
    19    22    23   ar
    20    23    24   ar
    21    24    25   ar
    22    25    26   ar
    23    26    27   ar
    24    18    19    1
    25    19    20    1
    26    13    14   ar
    27     7     2   ar
    28    14    10   ar
    29    14     5    1
    30    20    15    1
    31    27    22   ar
@<TRIPOS>MOLECULE
*****
 27 31 0 0 0
SMALL
GASTEIGER

@<TRIPOS>ATOM
      1 CL        144.9289  143.9603  165.8142 Cl      1  UNL1       -0.0823
      2 C         143.6883  143.1312  165.9671 C.ar    1  UNL1        0.0575
      3 C         142.6718  143.0920  164.8648 C.ar    1  UNL1        0.0129
      4 C         141.4311  142.2629  165.0177 C.ar    1  UNL1        0.0181
      5 C         141.2070  141.4729  166.2729 C.ar    1  UNL1        0.0623
      6 C         142.2235  141.5121  167.3752 C.ar    1  UNL1       -0.0047
      7 C         143.4641  142.3412  167.2223 C.ar    1  UNL1        0.0086
      8 C         141.9994  140.7221  168.6306 C.3     1  UNL1        0.0358
      9 C         140.7588  139.8929  168.7835 C.3     1  UNL1        0.0709
     10 C         139.7423  139.8538  167.6811 C.ar    1  UNL1        0.1471
     11 N         138.4337  139.1329  167.5477 N.ar    1  UNL1       -0.1333
     12 N         137.8490  139.4773  166.2100 N.ar    1  UNL1       -0.1333
     13 C         138.7963  140.4111  165.5167 C.ar    1  UNL1        0.1464
     14 N         139.9664  140.6438  166.4259 N.ar    1  UNL1       -0.2810
     15 C         138.6067  141.0075  164.1535 C.3     1  UNL1        0.0594
     16 C         137.8864  142.3143  164.0001 C.3     1  UNL1        0.0112
     17 C         137.6968  142.9108  162.6369 C.3     1  UNL1        0.0440
     18 C         138.2276  142.2005  161.4270 C.3     1  UNL1        0.1676
     19 C         138.9480  140.8938  161.5804 C.3     1  UNL1        0.0440
     20 C         139.1376  140.2973  162.9435 C.3     1  UNL1        0.0112
     21 O         138.0381  142.7969  160.0638 O.3     1  UNL1       -0.4640
     22 C         139.2320  143.1571  159.2302 C.ar    1  UNL1        0.2247
     23 C         140.3620  143.9359  159.8356 C.ar    1  UNL1        0.0577
     24 C         141.5559  144.2961  159.0019 C.ar    1  UNL1        0.0064
     25 C         141.6198  143.8776  157.5630 C.ar    1  UNL1        0.0209
     26 C         140.4897  143.0987  156.9576 C.ar    1  UNL1        0.1021
     27 N         139.2958  142.7386  157.7912 N.ar    1  UNL1       -0.2101
@<TRIPOS>BOND
     1     1     2    1
     2     2     3   ar
     3     3     4   ar
     4     4     5   ar
     5     5     6   ar
     6     6     7   ar
     7     6     8    1
     8     8     9    1
     9     9    10    1
    10    10    11   ar
    11    11    12   ar
    12    12    13   ar
    13    15    13    1
    14    15    16    1
    15    16    17    1
    16    17    18    1
    17    18    21    1
    18    21    22    1
    19    22    23   ar
    20    23    24   ar
    21    24    25   ar
    22    25    26   ar
    23    26    27   ar
    24    18    19    1
    25    19    20    1
    26    13    14   ar
    27     7     2   ar
    28    14    10   ar
    29    14     5    1
    30    20    15    1
    31    27    22   ar
@<TRIPOS>MOLECULE
*****
 27 31 0 0 0
SMALL
GASTEIGER

@<TRIPOS>ATOM
      1 CL        143.7361  139.6002  158.9804 Cl      1  UNL1       -0.0823
      2 C         142.9008  140.7258  159.5144 C.ar    1  UNL1        0.0575
      3 C         142.2015  140.5806  160.8334 C.ar    1  UNL1        0.0129
      4 C         141.3662  141.7063  161.3673 C.ar    1  UNL1        0.0181
      5 C         141.2302  142.9772  160.5823 C.ar    1  UNL1        0.0623
      6 C         141.9295  143.1224  159.2633 C.ar    1  UNL1       -0.0047
      7 C         142.7648  141.9967  158.7293 C.ar    1  UNL1        0.0086
      8 C         141.7936  144.3933  158.4782 C.3     1  UNL1        0.0358
      9 C         140.9583  145.5190  159.0122 C.3     1  UNL1        0.0709
     10 C         140.2589  145.3737  160.3312 C.ar    1  UNL1        0.1471
     11 N         139.3743  146.3049  161.1060 N.ar    1  UNL1       -0.1333
     12 N         138.9635  145.6094  162.3700 N.ar    1  UNL1       -0.1333
     13 C         139.5942  144.2485  162.3763 C.ar    1  UNL1        0.1464
     14 N         140.3949  144.1029  161.1163 N.ar    1  UNL1       -0.2810
     15 C         139.4498  143.2147  163.4535 C.3     1  UNL1        0.0594
     16 C         138.3826  142.1659  163.3482 C.3     1  UNL1        0.0112
     17 C         138.2381  141.1320  164.4254 C.3     1  UNL1        0.0440
     18 C         139.1608  141.1470  165.6079 C.3     1  UNL1        0.1676
     19 C         140.2279  142.1959  165.7133 C.3     1  UNL1        0.0440
     20 C         140.3725  143.2297  164.6361 C.3     1  UNL1        0.0112
     21 O         139.0163  140.1132  166.6851 O.3     1  UNL1       -0.4640
     22 C         140.1246  139.8996  167.6730 C.ar    1  UNL1        0.2247
     23 C         141.5166  139.6192  167.1895 C.ar    1  UNL1        0.0577
     24 C         142.6249  139.4055  168.1774 C.ar    1  UNL1        0.0064
     25 C         142.3414  139.4722  169.6488 C.ar    1  UNL1        0.0209
     26 C         140.9494  139.7526  170.1323 C.ar    1  UNL1        0.1021
     27 N         139.8411  139.9662  169.1444 N.ar    1  UNL1       -0.2101
@<TRIPOS>BOND
     1     1     2    1
     2     2     3   ar
     3     3     4   ar
     4     4     5   ar
     5     5     6   ar
     6     6     7   ar
     7     6     8    1
     8     8     9    1
     9     9    10    1
    10    10    11   ar
    11    11    12   ar
    12    12    13   ar
    13    15    13    1
    14    15    16    1
    15    16    17    1
    16    17    18    1
    17    18    21    1
    18    21    22    1
    19    22    23   ar
    20    23    24   ar
    21    24    25   ar
    22    25    26   ar
    23    26    27   ar
    24    18    19    1
    25    19    20    1
    26    13    14   ar
    27     7     2   ar
    28    14    10   ar
    29    14     5    1
    30    20    15    1
    31    27    22   ar
@<TRIPOS>MOLECULE
*****
 27 31 0 0 0
SMALL
GASTEIGER

@<TRIPOS>ATOM
      1 CL        140.7196  143.1644  168.6833 Cl      1  UNL1       -0.0823
      2 C         140.3945  142.3307  167.4794 C.ar    1  UNL1        0.0575
      3 C         140.6533  142.8679  166.1031 C.ar    1  UNL1        0.0129
      4 C         140.3282  142.0343  164.8992 C.ar    1  UNL1        0.0181
      5 C         139.7443  140.6634  165.0717 C.ar    1  UNL1        0.0623
      6 C         139.4855  140.1262  166.4480 C.ar    1  UNL1       -0.0047
      7 C         139.8106  140.9598  167.6519 C.ar    1  UNL1        0.0086
      8 C         138.9016  138.7553  166.6205 C.3     1  UNL1        0.0358
      9 C         138.5765  137.9216  165.4166 C.3     1  UNL1        0.0709
     10 C         138.8353  138.4589  164.0402 C.ar    1  UNL1        0.1471
     11 N         138.6185  137.8725  162.6768 N.ar    1  UNL1       -0.1333
     12 N         139.0684  138.8810  161.6616 N.ar    1  UNL1       -0.1333
     13 C         139.5633  140.0906  162.3977 C.ar    1  UNL1        0.1464
     14 N         139.4192  139.8298  163.8678 N.ar    1  UNL1       -0.2810
     15 C         140.1067  141.3415  161.7733 C.3     1  UNL1        0.0594
     16 C         139.1778  142.4594  161.4026 C.3     1  UNL1        0.0112
     17 C         139.7212  143.7104  160.7782 C.3     1  UNL1        0.0440
     18 C         141.1936  143.8434  160.5246 C.3     1  UNL1        0.1676
     19 C         142.1226  142.7256  160.8953 C.3     1  UNL1        0.0440
     20 C         141.5792  141.4746  161.5196 C.3     1  UNL1        0.0112
     21 O         141.7371  145.0943  159.9002 O.3     1  UNL1       -0.4640
     22 C         141.4362  145.4078  158.4645 C.ar    1  UNL1        0.2247
     23 C         142.3996  144.9992  157.3898 C.ar    1  UNL1        0.0577
     24 C         142.0987  145.3127  155.9542 C.ar    1  UNL1        0.0064
     25 C         140.8345  146.0347  155.5931 C.ar    1  UNL1        0.0209
     26 C         139.8712  146.4433  156.6678 C.ar    1  UNL1        0.1021
     27 N         140.1720  146.1298  158.1035 N.ar    1  UNL1       -0.2101
@<TRIPOS>BOND
     1     1     2    1
     2     2     3   ar
     3     3     4   ar
     4     4     5   ar
     5     5     6   ar
     6     6     7   ar
     7     6     8    1
     8     8     9    1
     9     9    10    1
    10    10    11   ar
    11    11    12   ar
    12    12    13   ar
    13    15    13    1
    14    15    16    1
    15    16    17    1
    16    17    18    1
    17    18    21    1
    18    21    22    1
    19    22    23   ar
    20    23    24   ar
    21    24    25   ar
    22    25    26   ar
    23    26    27   ar
    24    18    19    1
    25    19    20    1
    26    13    14   ar
    27     7     2   ar
    28    14    10   ar
    29    14     5    1
    30    20    15    1
    31    27    22   ar
@<TRIPOS>MOLECULE
*****
 27 31 0 0 0
SMALL
GASTEIGER

@<TRIPOS>ATOM
      1 CL        139.3410  145.0534  162.5084 Cl      1  UNL1       -0.0823
      2 C         140.1477  143.8952  162.0007 C.ar    1  UNL1        0.0575
      3 C         140.7428  142.9147  162.9674 C.ar    1  UNL1        0.0129
      4 C         141.5495  141.7564  162.4598 C.ar    1  UNL1        0.0181
      5 C         141.7612  141.5787  160.9855 C.ar    1  UNL1        0.0623
      6 C         141.1662  142.5592  160.0189 C.ar    1  UNL1       -0.0047
      7 C         140.3594  143.7174  160.5265 C.ar    1  UNL1        0.0086
      8 C         141.3778  142.3815  158.5445 C.3     1  UNL1        0.0358
      9 C         142.1846  141.2232  158.0369 C.3     1  UNL1        0.0709
     10 C         142.7796  140.2427  159.0037 C.ar    1  UNL1        0.1471
     11 N         143.6147  139.0135  158.8001 N.ar    1  UNL1       -0.1333
     12 N         143.9192  138.4314  160.1487 N.ar    1  UNL1       -0.1333
     13 C         143.2722  139.3010  161.1856 C.ar    1  UNL1        0.1464
     14 N         142.5679  140.4205  160.4779 N.ar    1  UNL1       -0.2810
     15 C         143.3210  139.0885  162.6697 C.3     1  UNL1        0.0594
     16 C         144.3953  139.7435  163.4862 C.3     1  UNL1        0.0112
     17 C         144.4441  139.5311  164.9703 C.3     1  UNL1        0.0440
     18 C         143.4185  138.6635  165.6378 C.3     1  UNL1        0.1676
     19 C         142.3442  138.0085  164.8213 C.3     1  UNL1        0.0440
     20 C         142.2954  138.2209  163.3373 C.3     1  UNL1        0.0112
     21 O         143.4673  138.4510  167.1219 O.3     1  UNL1       -0.4640
     22 C         142.7239  139.3782  168.0371 C.ar    1  UNL1        0.2247
     23 C         141.7689  140.3861  167.4695 C.ar    1  UNL1        0.0577
     24 C         141.0255  141.3133  168.3848 C.ar    1  UNL1        0.0064
     25 C         141.2370  141.2327  169.8675 C.ar    1  UNL1        0.0209
     26 C         142.1920  140.2248  170.4351 C.ar    1  UNL1        0.1021
     27 N         142.9354  139.2976  169.5199 N.ar    1  UNL1       -0.2101
@<TRIPOS>BOND
     1     1     2    1
     2     2     3   ar
     3     3     4   ar
     4     4     5   ar
     5     5     6   ar
     6     6     7   ar
     7     6     8    1
     8     8     9    1
     9     9    10    1
    10    10    11   ar
    11    11    12   ar
    12    12    13   ar
    13    15    13    1
    14    15    16    1
    15    16    17    1
    16    17    18    1
    17    18    21    1
    18    21    22    1
    19    22    23   ar
    20    23    24   ar
    21    24    25   ar
    22    25    26   ar
    23    26    27   ar
    24    18    19    1
    25    19    20    1
    26    13    14   ar
    27     7     2   ar
    28    14    10   ar
    29    14     5    1
    30    20    15    1
    31    27    22   ar
