@<TRIPOS>MOLECULE
*****
 35 37 0 0 0
SMALL
GASTEIGER

@<TRIPOS>ATOM
      1 C         143.0126  140.3740  165.3904 C.2     1  UNL1        0.2521
      2 O         144.0329  139.2755  165.3430 O.2     1  UNL1       -0.2698
      3 N         142.7389  141.1967  164.1663 N.am    1  UNL1       -0.2725
      4 C         141.7185  142.2952  164.2137 C.3     1  UNL1        0.1152
      5 C         141.4448  143.1179  162.9897 C.3     1  UNL1        0.1151
      6 N         142.1914  142.8421  161.7183 N.pl3   1  UNL1       -0.2747
      7 C         143.2117  141.7436  161.6709 C.3     1  UNL1        0.1151
      8 C         143.4854  140.9209  162.8949 C.3     1  UNL1        0.1152
      9 C         140.9246  140.0205  166.8955 C.ar    1  UNL1        0.1432
     10 C         140.1780  140.2963  168.1669 C.ar    1  UNL1        0.0384
     11 C         140.7728  141.2015  169.2046 C.ar    1  UNL1        0.0215
     12 C         142.1142  141.8309  168.9709 C.ar    1  UNL1        0.1061
     13 C         142.8607  141.5550  167.6995 C.ar    1  UNL1        0.0259
     14 C         142.2659  140.6498  166.6618 C.ar    1  UNL1        0.0887
     15 S         142.7089  142.7361  170.0086 S.O2    1  UNL1        0.0105
     16 C         143.3037  143.6414  171.0463 C.3     1  UNL1        0.1816
     17 O         141.4133  142.7211  170.7643 O.2     1  UNL1       -0.1686
     18 O         144.0046  142.7511  169.2529 O.2     1  UNL1       -0.1686
     19 O         140.3298  139.1152  165.8578 O.3     1  UNL1       -0.4702
     20 C         138.1036  140.0993  164.9494 C.3     1  UNL1        0.0566
     21 C         138.8405  139.0307  165.7011 C.3     1  UNL1        0.2599
     22 C         138.0879  137.8775  166.2961 C.3     1  UNL1        0.4340
     23 F         137.3354  136.7244  166.8911 F       1  UNL1       -0.1664
     24 F         137.3257  138.8269  167.1723 F       1  UNL1       -0.1664
     25 F         138.8501  136.9281  165.4200 F       1  UNL1       -0.1664
     26 C         141.9177  143.6647  160.4942 C.ar    1  UNL1        0.2203
     27 N         140.7146  144.5594  160.4455 N.ar    1  UNL1       -0.2121
     28 C         140.4409  145.3821  159.2214 C.ar    1  UNL1        0.1072
     29 C         141.3703  145.3101  158.0462 C.ar    1  UNL1        0.1097
     30 C         142.5733  144.4155  158.0950 C.ar    1  UNL1        0.1072
     31 N         142.8470  143.5928  159.3190 N.ar    1  UNL1       -0.2121
     32 C         141.0966  146.1328  156.8221 C.3     1  UNL1        0.4215
     33 F         140.8229  146.9555  155.5981 F       1  UNL1       -0.1657
     34 F         142.3825  145.6563  156.2143 F       1  UNL1       -0.1657
     35 F         139.8107  146.6093  157.4299 F       1  UNL1       -0.1657
@<TRIPOS>BOND
     1    20    21    1
     2    21    19    1
     3    19     9    1
     4     9    10   ar
     5    10    11   ar
     6    11    12   ar
     7    12    15    1
     8    15    16    1
     9    15    17    2
    10    15    18    2
    11    12    13   ar
    12    13    14   ar
    13    14     1    1
    14     1     2    2
    15     1     3   am
    16     3     4    1
    17     4     5    1
    18     5     6    1
    19     6    26    1
    20    26    27   ar
    21    27    28   ar
    22    28    29   ar
    23    29    32    1
    24    32    33    1
    25    32    34    1
    26    32    35    1
    27    29    30   ar
    28    30    31   ar
    29     6     7    1
    30     7     8    1
    31    21    22    1
    32    22    23    1
    33    22    24    1
    34    22    25    1
    35    14     9   ar
    36     8     3    1
    37    31    26   ar
@<TRIPOS>MOLECULE
*****
 35 37 0 0 0
SMALL
GASTEIGER

@<TRIPOS>ATOM
      1 C         139.1728  142.2896  164.5437 C.2     1  UNL1        0.2521
      2 O         137.9136  143.0893  164.3863 O.2     1  UNL1       -0.2698
      3 N         140.1117  142.1331  163.3844 N.am    1  UNL1       -0.2725
      4 C         141.3710  141.3334  163.5418 C.3     1  UNL1        0.1152
      5 C         142.3099  141.1769  162.3825 C.3     1  UNL1        0.1151
      6 N         141.9895  141.8200  161.0658 N.pl3   1  UNL1       -0.2747
      7 C         140.7302  142.6197  160.9084 C.3     1  UNL1        0.1151
      8 C         139.7914  142.7762  162.0677 C.3     1  UNL1        0.1152
      9 C         138.9643  140.2786  166.1754 C.ar    1  UNL1        0.1432
     10 C         139.2847  139.6355  167.4921 C.ar    1  UNL1        0.0384
     11 C         140.1341  140.3602  168.4938 C.ar    1  UNL1        0.0215
     12 C         140.6630  141.7280  168.1788 C.ar    1  UNL1        0.1061
     13 C         140.3426  142.3711  166.8621 C.ar    1  UNL1        0.0259
     14 C         139.4932  141.6464  165.8604 C.ar    1  UNL1        0.0887
     15 S         141.5123  142.4527  169.1805 S.O2    1  UNL1        0.0105
     16 C         142.3616  143.1775  170.1822 C.3     1  UNL1        0.1816
     17 O         142.5402  141.3635  169.0970 O.2     1  UNL1       -0.1686
     18 O         140.4844  143.5420  169.2641 O.2     1  UNL1       -0.1686
     19 O         138.1150  139.5539  165.1737 O.3     1  UNL1       -0.4702
     20 C         138.4024  138.9244  162.6695 C.3     1  UNL1        0.0566
     21 C         138.7600  138.7145  164.1110 C.3     1  UNL1        0.2599
     22 C         139.7627  137.6651  164.4899 C.3     1  UNL1        0.4340
     23 F         140.7653  136.6157  164.8687 F       1  UNL1       -0.1664
     24 F         138.7748  137.0665  165.4468 F       1  UNL1       -0.1664
     25 F         140.7506  138.2636  163.5330 F       1  UNL1       -0.1664
     26 C         142.9284  141.6635  159.9065 C.ar    1  UNL1        0.2203
     27 N         142.8622  140.4349  159.0483 N.ar    1  UNL1       -0.2121
     28 C         143.8011  140.2784  157.8890 C.ar    1  UNL1        0.1072
     29 C         144.8061  141.3505  157.5878 C.ar    1  UNL1        0.1097
     30 C         144.8723  142.5790  158.4459 C.ar    1  UNL1        0.1072
     31 N         143.9334  142.7355  159.6052 N.ar    1  UNL1       -0.2121
     32 C         145.7450  141.1939  156.4285 C.3     1  UNL1        0.4215
     33 F         146.6839  141.0374  155.2692 F       1  UNL1       -0.1657
     34 F         146.4083  142.4896  156.7908 F       1  UNL1       -0.1657
     35 F         145.0817  139.8982  156.0663 F       1  UNL1       -0.1657
@<TRIPOS>BOND
     1    20    21    1
     2    21    19    1
     3    19     9    1
     4     9    10   ar
     5    10    11   ar
     6    11    12   ar
     7    12    15    1
     8    15    16    1
     9    15    17    2
    10    15    18    2
    11    12    13   ar
    12    13    14   ar
    13    14     1    1
    14     1     2    2
    15     1     3   am
    16     3     4    1
    17     4     5    1
    18     5     6    1
    19     6    26    1
    20    26    27   ar
    21    27    28   ar
    22    28    29   ar
    23    29    32    1
    24    32    33    1
    25    32    34    1
    26    32    35    1
    27    29    30   ar
    28    30    31   ar
    29     6     7    1
    30     7     8    1
    31    21    22    1
    32    22    23    1
    33    22    24    1
    34    22    25    1
    35    14     9   ar
    36     8     3    1
    37    31    26   ar
@<TRIPOS>MOLECULE
*****
 35 37 0 0 0
SMALL
GASTEIGER

@<TRIPOS>ATOM
      1 C         141.9638  140.4912  163.2377 C.2     1  UNL1        0.2521
      2 O         143.0485  140.2021  164.2325 O.2     1  UNL1       -0.2698
      3 N         141.9556  139.7897  161.9119 N.am    1  UNL1       -0.2725
      4 C         140.8709  140.0788  160.9170 C.3     1  UNL1        0.1152
      5 C         140.8627  139.3773  159.5911 C.3     1  UNL1        0.1151
      6 N         141.9394  138.3866  159.2602 N.pl3   1  UNL1       -0.2747
      7 C         143.0241  138.0975  160.2551 C.3     1  UNL1        0.1151
      8 C         143.0322  138.7990  161.5809 C.3     1  UNL1        0.1152
      9 C         139.8717  141.1611  164.6250 C.ar    1  UNL1        0.1432
     10 C         138.7951  142.1518  164.9559 C.ar    1  UNL1        0.0384
     11 C         138.7339  143.4632  164.2304 C.ar    1  UNL1        0.0215
     12 C         139.7493  143.7840  163.1739 C.ar    1  UNL1        0.1061
     13 C         140.8259  142.7933  162.8431 C.ar    1  UNL1        0.0259
     14 C         140.8871  141.4819  163.5686 C.ar    1  UNL1        0.0887
     15 S         139.6881  145.0954  162.4484 S.O2    1  UNL1        0.0105
     16 C         139.6269  146.4068  161.7229 C.3     1  UNL1        0.1816
     17 O         141.1858  145.1767  162.4691 O.2     1  UNL1       -0.1686
     18 O         138.1905  145.0141  162.4277 O.2     1  UNL1       -0.1686
     19 O         139.9329  139.8497  165.3506 O.3     1  UNL1       -0.4702
     20 C         138.8204  138.2982  163.5884 C.3     1  UNL1        0.0566
     21 C         138.9629  138.7577  165.0092 C.3     1  UNL1        0.2599
     22 C         138.1353  138.1252  166.0886 C.3     1  UNL1        0.4340
     23 F         137.3077  137.4927  167.1679 F       1  UNL1       -0.1664
     24 F         137.7500  139.4853  166.5902 F       1  UNL1       -0.1664
     25 F         138.5205  136.7651  165.5869 F       1  UNL1       -0.1664
     26 C         141.9313  137.6851  157.9344 C.ar    1  UNL1        0.2203
     27 N         140.6540  137.5654  157.1570 N.ar    1  UNL1       -0.2121
     28 C         140.6458  136.8639  155.8312 C.ar    1  UNL1        0.1072
     29 C         141.9150  136.2821  155.2828 C.ar    1  UNL1        0.1097
     30 C         143.1923  136.4018  156.0601 C.ar    1  UNL1        0.1072
     31 N         143.2004  137.1033  157.3859 N.ar    1  UNL1       -0.2121
     32 C         141.9069  135.5805  153.9569 C.3     1  UNL1        0.4215
     33 F         141.8988  134.8790  152.6311 F       1  UNL1       -0.1657
     34 F         143.2939  135.0721  154.2175 F       1  UNL1       -0.1657
     35 F         140.5200  136.0890  153.6964 F       1  UNL1       -0.1657
@<TRIPOS>BOND
     1    20    21    1
     2    21    19    1
     3    19     9    1
     4     9    10   ar
     5    10    11   ar
     6    11    12   ar
     7    12    15    1
     8    15    16    1
     9    15    17    2
    10    15    18    2
    11    12    13   ar
    12    13    14   ar
    13    14     1    1
    14     1     2    2
    15     1     3   am
    16     3     4    1
    17     4     5    1
    18     5     6    1
    19     6    26    1
    20    26    27   ar
    21    27    28   ar
    22    28    29   ar
    23    29    32    1
    24    32    33    1
    25    32    34    1
    26    32    35    1
    27    29    30   ar
    28    30    31   ar
    29     6     7    1
    30     7     8    1
    31    21    22    1
    32    22    23    1
    33    22    24    1
    34    22    25    1
    35    14     9   ar
    36     8     3    1
    37    31    26   ar
@<TRIPOS>MOLECULE
*****
 35 37 0 0 0
SMALL
GASTEIGER

@<TRIPOS>ATOM
      1 C         139.7439  139.5466  165.0886 C.2     1  UNL1        0.2521
      2 O         138.8392  138.3516  165.0298 O.2     1  UNL1       -0.2698
      3 N         139.8463  140.4685  163.9097 N.am    1  UNL1       -0.2725
      4 C         140.7511  141.6635  163.9685 C.3     1  UNL1        0.1152
      5 C         140.8535  142.5854  162.7897 C.3     1  UNL1        0.1151
      6 N         140.0511  142.3123  161.5521 N.pl3   1  UNL1       -0.2747
      7 C         139.1464  141.1173  161.4933 C.3     1  UNL1        0.1151
      8 C         139.0440  140.1954  162.6722 C.3     1  UNL1        0.1152
      9 C         141.8716  139.1458  166.5248 C.ar    1  UNL1        0.1432
     10 C         142.6739  139.4190  167.7624 C.ar    1  UNL1        0.0384
     11 C         142.1509  140.3661  168.8014 C.ar    1  UNL1        0.0215
     12 C         140.8257  141.0400  168.6028 C.ar    1  UNL1        0.1061
     13 C         140.0234  140.7668  167.3652 C.ar    1  UNL1        0.0259
     14 C         140.5463  139.8198  166.3262 C.ar    1  UNL1        0.0887
     15 S         140.3027  141.9871  169.6418 S.O2    1  UNL1        0.0105
     16 C         139.7797  142.9342  170.6808 C.3     1  UNL1        0.1816
     17 O         139.3037  140.9568  170.0782 O.2     1  UNL1       -0.1686
     18 O         141.3017  143.0174  169.2054 O.2     1  UNL1       -0.1686
     19 O         142.3945  138.1987  165.4858 O.3     1  UNL1       -0.4702
     20 C         142.5726  138.4040  162.9020 C.3     1  UNL1        0.0566
     21 C         143.0937  138.7307  164.2700 C.3     1  UNL1        0.2599
     22 C         144.3142  139.5895  164.4223 C.3     1  UNL1        0.4340
     23 F         145.5346  140.4482  164.5746 F       1  UNL1       -0.1664
     24 F         144.8824  138.6079  165.4040 F       1  UNL1       -0.1664
     25 F         143.7460  140.5710  163.4407 F       1  UNL1       -0.1664
     26 C         140.1535  143.2341  160.3732 C.ar    1  UNL1        0.2203
     27 N         140.9215  144.5175  160.4892 N.ar    1  UNL1       -0.2121
     28 C         141.0239  145.4393  159.3104 C.ar    1  UNL1        0.1072
     29 C         140.3583  145.0779  158.0156 C.ar    1  UNL1        0.1097
     30 C         139.5903  143.7947  157.8997 C.ar    1  UNL1        0.1072
     31 N         139.4879  142.8728  159.0785 N.ar    1  UNL1       -0.2121
     32 C         140.4606  145.9998  156.8367 C.3     1  UNL1        0.4215
     33 F         140.5630  146.9217  155.6579 F       1  UNL1       -0.1657
     34 F         141.3296  145.0012  156.1313 F       1  UNL1       -0.1657
     35 F         139.5917  146.9984  157.5422 F       1  UNL1       -0.1657
@<TRIPOS>BOND
     1    20    21    1
     2    21    19    1
     3    19     9    1
     4     9    10   ar
     5    10    11   ar
     6    11    12   ar
     7    12    15    1
     8    15    16    1
     9    15    17    2
    10    15    18    2
    11    12    13   ar
    12    13    14   ar
    13    14     1    1
    14     1     2    2
    15     1     3   am
    16     3     4    1
    17     4     5    1
    18     5     6    1
    19     6    26    1
    20    26    27   ar
    21    27    28   ar
    22    28    29   ar
    23    29    32    1
    24    32    33    1
    25    32    34    1
    26    32    35    1
    27    29    30   ar
    28    30    31   ar
    29     6     7    1
    30     7     8    1
    31    21    22    1
    32    22    23    1
    33    22    24    1
    34    22    25    1
    35    14     9   ar
    36     8     3    1
    37    31    26   ar
@<TRIPOS>MOLECULE
*****
 35 37 0 0 0
SMALL
GASTEIGER

@<TRIPOS>ATOM
      1 C         143.2895  142.0409  164.3648 C.2     1  UNL1        0.2521
      2 O         144.4774  142.9568  164.3601 O.2     1  UNL1       -0.2698
      3 N         142.9461  141.2517  163.1363 N.am    1  UNL1       -0.2725
      4 C         141.7582  140.3357  163.1411 C.3     1  UNL1        0.1152
      5 C         141.4147  139.5464  161.9127 C.3     1  UNL1        0.1151
      6 N         142.2592  139.6732  160.6794 N.pl3   1  UNL1       -0.2747
      7 C         143.4470  140.5891  160.6746 C.3     1  UNL1        0.1151
      8 C         143.7905  141.3784  161.9031 C.3     1  UNL1        0.1152
      9 C         141.2513  142.8031  165.7843 C.ar    1  UNL1        0.1432
     10 C         140.4069  142.6763  167.0175 C.ar    1  UNL1        0.0384
     11 C         140.7563  141.6606  168.0645 C.ar    1  UNL1        0.0215
     12 C         141.9501  140.7717  167.8784 C.ar    1  UNL1        0.1061
     13 C         142.7945  140.8985  166.6452 C.ar    1  UNL1        0.0259
     14 C         142.4451  141.9142  165.5981 C.ar    1  UNL1        0.0887
     15 S         142.2995  139.7561  168.9255 S.O2    1  UNL1        0.0105
     16 C         142.6489  138.7404  169.9725 C.3     1  UNL1        0.1816
     17 O         141.4951  140.5201  169.9350 O.2     1  UNL1       -0.1686
     18 O         143.1038  138.9920  167.9159 O.2     1  UNL1       -0.1686
     19 O         140.9019  143.8187  164.7372 O.3     1  UNL1       -0.4702
     20 C         139.5771  143.1738  162.5973 C.3     1  UNL1        0.0566
     21 C         139.6019  143.7151  163.9961 C.3     1  UNL1        0.2599
     22 C         138.3267  144.1529  164.6536 C.3     1  UNL1        0.4340
     23 F         137.0516  144.5906  165.3112 F       1  UNL1       -0.1664
     24 F         137.6135  142.9781  164.0526 F       1  UNL1       -0.1664
     25 F         139.0399  145.3276  165.2546 F       1  UNL1       -0.1664
     26 C         141.9158  138.8840  159.4509 C.ar    1  UNL1        0.2203
     27 N         142.9906  138.1471  158.7080 N.ar    1  UNL1       -0.2121
     28 C         142.6472  137.3579  157.4796 C.ar    1  UNL1        0.1072
     29 C         141.2289  137.3055  156.9940 C.ar    1  UNL1        0.1097
     30 C         140.1541  138.0423  157.7368 C.ar    1  UNL1        0.1072
     31 N         140.4975  138.8315  158.9653 N.ar    1  UNL1       -0.2121
     32 C         140.8854  136.5162  155.7655 C.3     1  UNL1        0.4215
     33 F         140.5420  135.7270  154.5370 F       1  UNL1       -0.1657
     34 F         139.4301  136.8037  155.9877 F       1  UNL1       -0.1657
     35 F         142.3408  136.2288  155.5433 F       1  UNL1       -0.1657
@<TRIPOS>BOND
     1    20    21    1
     2    21    19    1
     3    19     9    1
     4     9    10   ar
     5    10    11   ar
     6    11    12   ar
     7    12    15    1
     8    15    16    1
     9    15    17    2
    10    15    18    2
    11    12    13   ar
    12    13    14   ar
    13    14     1    1
    14     1     2    2
    15     1     3   am
    16     3     4    1
    17     4     5    1
    18     5     6    1
    19     6    26    1
    20    26    27   ar
    21    27    28   ar
    22    28    29   ar
    23    29    32    1
    24    32    33    1
    25    32    34    1
    26    32    35    1
    27    29    30   ar
    28    30    31   ar
    29     6     7    1
    30     7     8    1
    31    21    22    1
    32    22    23    1
    33    22    24    1
    34    22    25    1
    35    14     9   ar
    36     8     3    1
    37    31    26   ar
@<TRIPOS>MOLECULE
*****
 35 37 0 0 0
SMALL
GASTEIGER

@<TRIPOS>ATOM
      1 C         138.6353  141.7622  162.2540 C.2     1  UNL1        0.2521
      2 O         137.2719  142.3838  162.1871 O.2     1  UNL1       -0.2698
      3 N         139.1037  140.8610  161.1502 N.am    1  UNL1       -0.2725
      4 C         140.4673  140.2394  161.2172 C.3     1  UNL1        0.1152
      5 C         140.9357  139.3381  160.1134 C.3     1  UNL1        0.1151
      6 N         140.0405  139.0584  158.9427 N.pl3   1  UNL1       -0.2747
      7 C         138.6770  139.6800  158.8758 C.3     1  UNL1        0.1151
      8 C         138.2087  140.5813  159.9795 C.3     1  UNL1        0.1152
      9 C         139.2719  141.3745  164.7429 C.ar    1  UNL1        0.1432
     10 C         140.1671  141.6542  165.9135 C.ar    1  UNL1        0.0384
     11 C         141.3208  142.6013  165.7660 C.ar    1  UNL1        0.0215
     12 C         141.5794  143.2688  164.4478 C.ar    1  UNL1        0.1061
     13 C         140.6843  142.9891  163.2772 C.ar    1  UNL1        0.0259
     14 C         139.5305  142.0419  163.4247 C.ar    1  UNL1        0.0887
     15 S         142.7332  144.2159  164.3003 S.O2    1  UNL1        0.0105
     16 C         143.8870  145.1630  164.1527 C.3     1  UNL1        0.1816
     17 O         141.8310  145.2109  163.6323 O.2     1  UNL1       -0.1686
     18 O         143.6354  143.2209  164.9682 O.2     1  UNL1       -0.1686
     19 O         138.1181  140.4274  164.8904 O.3     1  UNL1       -0.4702
     20 C         137.9661  138.4011  166.5094 C.3     1  UNL1        0.0566
     21 C         138.3702  138.9784  165.1852 C.3     1  UNL1        0.2599
     22 C         139.0264  138.1067  164.1558 C.3     1  UNL1        0.4340
     23 F         139.6826  137.2350  163.1265 F       1  UNL1       -0.1664
     24 F         138.0518  138.5916  163.1239 F       1  UNL1       -0.1664
     25 F         140.0010  137.6218  165.1878 F       1  UNL1       -0.1664
     26 C         140.5089  138.1572  157.8389 C.ar    1  UNL1        0.2203
     27 N         139.5335  137.6546  156.8161 N.ar    1  UNL1       -0.2121
     28 C         140.0019  136.7533  155.7123 C.ar    1  UNL1        0.1072
     29 C         141.4457  136.3546  155.6313 C.ar    1  UNL1        0.1097
     30 C         142.4211  136.8573  156.6541 C.ar    1  UNL1        0.1072
     31 N         141.9527  137.7585  157.7578 N.ar    1  UNL1       -0.2121
     32 C         141.9141  135.4534  154.5276 C.3     1  UNL1        0.4215
     33 F         142.3825  134.5521  153.4238 F       1  UNL1       -0.1657
     34 F         143.3215  135.5637  155.0347 F       1  UNL1       -0.1657
     35 F         140.5068  135.3431  154.0204 F       1  UNL1       -0.1657
@<TRIPOS>BOND
     1    20    21    1
     2    21    19    1
     3    19     9    1
     4     9    10   ar
     5    10    11   ar
     6    11    12   ar
     7    12    15    1
     8    15    16    1
     9    15    17    2
    10    15    18    2
    11    12    13   ar
    12    13    14   ar
    13    14     1    1
    14     1     2    2
    15     1     3   am
    16     3     4    1
    17     4     5    1
    18     5     6    1
    19     6    26    1
    20    26    27   ar
    21    27    28   ar
    22    28    29   ar
    23    29    32    1
    24    32    33    1
    25    32    34    1
    26    32    35    1
    27    29    30   ar
    28    30    31   ar
    29     6     7    1
    30     7     8    1
    31    21    22    1
    32    22    23    1
    33    22    24    1
    34    22    25    1
    35    14     9   ar
    36     8     3    1
    37    31    26   ar
@<TRIPOS>MOLECULE
*****
 35 37 0 0 0
SMALL
GASTEIGER

@<TRIPOS>ATOM
      1 C         143.0538  143.5606  163.3860 C.2     1  UNL1        0.2521
      2 O         143.9113  144.7901  163.3313 O.2     1  UNL1       -0.2698
      3 N         143.0645  142.5874  162.2447 N.am    1  UNL1       -0.2725
      4 C         142.2070  141.3578  162.2995 C.3     1  UNL1        0.1152
      5 C         142.2177  140.3845  161.1581 C.3     1  UNL1        0.1151
      6 N         143.0860  140.6408  159.9621 N.pl3   1  UNL1       -0.2747
      7 C         143.9434  141.8703  159.9074 C.3     1  UNL1        0.1151
      8 C         143.9327  142.8436  161.0487 C.3     1  UNL1        0.1152
      9 C         140.7722  143.8064  164.6043 C.ar    1  UNL1        0.1432
     10 C         139.9041  143.5501  165.8003 C.ar    1  UNL1        0.0384
     11 C         140.4492  142.7918  166.9742 C.ar    1  UNL1        0.0215
     12 C         141.8625  142.2899  166.9520 C.ar    1  UNL1        0.1061
     13 C         142.7307  142.5461  165.7559 C.ar    1  UNL1        0.0259
     14 C         142.1855  143.3044  164.5821 C.ar    1  UNL1        0.0887
     15 S         142.4076  141.5316  168.1258 S.O2    1  UNL1        0.0105
     16 C         142.9527  140.7733  169.2996 C.3     1  UNL1        0.1816
     17 O         143.3991  142.6294  168.3745 O.2     1  UNL1       -0.1686
     18 O         141.4161  140.4338  167.8771 O.2     1  UNL1       -0.1686
     19 O         140.2271  144.5646  163.4305 O.3     1  UNL1       -0.4702
     20 C         139.8407  143.9182  160.9440 C.3     1  UNL1        0.0566
     21 C         139.4246  143.8506  162.3835 C.3     1  UNL1        0.2599
     22 C         138.2060  143.0690  162.7761 C.3     1  UNL1        0.4340
     23 F         136.9874  142.2875  163.1687 F       1  UNL1       -0.1664
     24 F         138.9296  141.7899  162.4760 F       1  UNL1       -0.1664
     25 F         137.4823  144.3481  163.0762 F       1  UNL1       -0.1664
     26 C         143.0967  139.6675  158.8207 C.ar    1  UNL1        0.2203
     27 N         142.7166  138.2351  159.0530 N.ar    1  UNL1       -0.2121
     28 C         142.7273  137.2619  157.9116 C.ar    1  UNL1        0.1072
     29 C         143.1181  137.7210  156.5381 C.ar    1  UNL1        0.1097
     30 C         143.4982  139.1533  156.3059 C.ar    1  UNL1        0.1072
     31 N         143.4875  140.1266  157.4472 N.ar    1  UNL1       -0.2121
     32 C         143.1288  136.7477  155.3968 C.3     1  UNL1        0.4215
     33 F         143.1396  135.7744  154.2554 F       1  UNL1       -0.1657
     34 F         144.5498  136.3887  155.7163 F       1  UNL1       -0.1657
     35 F         141.7079  137.1067  155.0773 F       1  UNL1       -0.1657
@<TRIPOS>BOND
     1    20    21    1
     2    21    19    1
     3    19     9    1
     4     9    10   ar
     5    10    11   ar
     6    11    12   ar
     7    12    15    1
     8    15    16    1
     9    15    17    2
    10    15    18    2
    11    12    13   ar
    12    13    14   ar
    13    14     1    1
    14     1     2    2
    15     1     3   am
    16     3     4    1
    17     4     5    1
    18     5     6    1
    19     6    26    1
    20    26    27   ar
    21    27    28   ar
    22    28    29   ar
    23    29    32    1
    24    32    33    1
    25    32    34    1
    26    32    35    1
    27    29    30   ar
    28    30    31   ar
    29     6     7    1
    30     7     8    1
    31    21    22    1
    32    22    23    1
    33    22    24    1
    34    22    25    1
    35    14     9   ar
    36     8     3    1
    37    31    26   ar
@<TRIPOS>MOLECULE
*****
 35 37 0 0 0
SMALL
GASTEIGER

@<TRIPOS>ATOM
      1 C         141.6187  140.3418  162.9565 C.2     1  UNL1        0.2521
      2 O         142.6584  140.0872  164.0073 O.2     1  UNL1       -0.2698
      3 N         141.6880  139.6212  161.6427 N.am    1  UNL1       -0.2725
      4 C         140.6482  139.8758  160.5919 C.3     1  UNL1        0.1152
      5 C         140.7175  139.1553  159.2782 C.3     1  UNL1        0.1151
      6 N         141.8266  138.1801  159.0152 N.pl3   1  UNL1       -0.2747
      7 C         142.8663  137.9256  160.0660 C.3     1  UNL1        0.1151
      8 C         142.7970  138.6461  161.3797 C.3     1  UNL1        0.1152
      9 C         139.3260  140.9025  164.0424 C.ar    1  UNL1        0.1432
     10 C         138.2170  141.8777  164.3053 C.ar    1  UNL1        0.0384
     11 C         138.2916  143.2672  163.7453 C.ar    1  UNL1        0.0215
     12 C         139.4753  143.6816  162.9224 C.ar    1  UNL1        0.1061
     13 C         140.5843  142.7065  162.6595 C.ar    1  UNL1        0.0259
     14 C         140.5096  141.3169  163.2195 C.ar    1  UNL1        0.0887
     15 S         139.5499  145.0712  162.3625 S.O2    1  UNL1        0.0105
     16 C         139.6245  146.4607  161.8025 C.3     1  UNL1        0.1816
     17 O         141.0452  145.0367  162.4761 O.2     1  UNL1       -0.1686
     18 O         138.0546  145.1057  162.2489 O.2     1  UNL1       -0.1686
     19 O         139.2514  139.5130  164.6024 O.3     1  UNL1       -0.4702
     20 C         137.9555  138.6501  166.6823 C.3     1  UNL1        0.0566
     21 C         139.1655  139.3057  166.0855 C.3     1  UNL1        0.2599
     22 C         140.2896  139.7539  166.9718 C.3     1  UNL1        0.4340
     23 F         141.4136  140.2022  167.8581 F       1  UNL1       -0.1664
     24 F         141.2159  138.7977  166.2807 F       1  UNL1       -0.1664
     25 F         139.3633  140.7101  167.6629 F       1  UNL1       -0.1664
     26 C         141.8959  137.4596  157.7014 C.ar    1  UNL1        0.2203
     27 N         140.6822  137.3827  156.8233 N.ar    1  UNL1       -0.2121
     28 C         140.7515  136.6621  155.5095 C.ar    1  UNL1        0.1072
     29 C         142.0345  136.0185  155.0739 C.ar    1  UNL1        0.1097
     30 C         143.2482  136.0954  155.9520 C.ar    1  UNL1        0.1072
     31 N         143.1789  136.8160  157.2658 N.ar    1  UNL1       -0.2121
     32 C         142.1039  135.2979  153.7601 C.3     1  UNL1        0.4215
     33 F         142.1732  134.5774  152.4463 F       1  UNL1       -0.1657
     34 F         143.1838  134.4103  154.3039 F       1  UNL1       -0.1657
     35 F         141.0239  136.1855  153.2163 F       1  UNL1       -0.1657
@<TRIPOS>BOND
     1    20    21    1
     2    21    19    1
     3    19     9    1
     4     9    10   ar
     5    10    11   ar
     6    11    12   ar
     7    12    15    1
     8    15    16    1
     9    15    17    2
    10    15    18    2
    11    12    13   ar
    12    13    14   ar
    13    14     1    1
    14     1     2    2
    15     1     3   am
    16     3     4    1
    17     4     5    1
    18     5     6    1
    19     6    26    1
    20    26    27   ar
    21    27    28   ar
    22    28    29   ar
    23    29    32    1
    24    32    33    1
    25    32    34    1
    26    32    35    1
    27    29    30   ar
    28    30    31   ar
    29     6     7    1
    30     7     8    1
    31    21    22    1
    32    22    23    1
    33    22    24    1
    34    22    25    1
    35    14     9   ar
    36     8     3    1
    37    31    26   ar
@<TRIPOS>MOLECULE
*****
 35 37 0 0 0
SMALL
GASTEIGER

@<TRIPOS>ATOM
      1 C         144.1459  141.5384  164.3051 C.2     1  UNL1        0.2521
      2 O         145.6409  141.4174  164.3168 O.2     1  UNL1       -0.2698
      3 N         143.4518  142.1462  163.1224 N.am    1  UNL1       -0.2725
      4 C         141.9567  142.2672  163.1108 C.3     1  UNL1        0.1152
      5 C         141.2626  142.8750  161.9281 C.3     1  UNL1        0.1151
      6 N         142.0637  143.3619  160.7570 N.pl3   1  UNL1       -0.2747
      7 C         143.5587  143.2409  160.7686 C.3     1  UNL1        0.1151
      8 C         144.2528  142.6330  161.9513 C.3     1  UNL1        0.1152
      9 C         142.9052  139.6189  165.5406 C.ar    1  UNL1        0.1432
     10 C         142.1042  139.1321  166.7116 C.ar    1  UNL1        0.0384
     11 C         141.7428  140.0780  167.8183 C.ar    1  UNL1        0.0215
     12 C         142.1825  141.5106  167.7539 C.ar    1  UNL1        0.1061
     13 C         142.9835  141.9974  166.5829 C.ar    1  UNL1        0.0259
     14 C         143.3448  141.0515  165.4762 C.ar    1  UNL1        0.0887
     15 S         141.8211  142.4565  168.8606 S.O2    1  UNL1        0.0105
     16 C         141.4598  143.4024  169.9673 C.3     1  UNL1        0.1816
     17 O         140.5917  142.8690  168.1067 O.2     1  UNL1       -0.1686
     18 O         143.0505  142.0440  169.6146 O.2     1  UNL1       -0.1686
     19 O         143.2665  138.6730  164.4339 O.3     1  UNL1       -0.4702
     20 C         142.7867  138.7722  161.8824 C.3     1  UNL1        0.0566
     21 C         142.3290  138.4757  163.2798 C.3     1  UNL1        0.2599
     22 C         140.9335  137.9820  163.5230 C.3     1  UNL1        0.4340
     23 F         139.5381  137.4884  163.7662 F       1  UNL1       -0.1664
     24 F         141.4786  136.8331  164.3185 F       1  UNL1       -0.1664
     25 F         140.3884  139.1309  162.7275 F       1  UNL1       -0.1664
     26 C         141.3696  143.9697  159.5743 C.ar    1  UNL1        0.2203
     27 N         140.1953  143.2723  158.9538 N.ar    1  UNL1       -0.2121
     28 C         139.5013  143.8802  157.7711 C.ar    1  UNL1        0.1072
     29 C         139.9814  145.1854  157.2089 C.ar    1  UNL1        0.1097
     30 C         141.1556  145.8827  157.8294 C.ar    1  UNL1        0.1072
     31 N         141.8497  145.2748  159.0121 N.ar    1  UNL1       -0.2121
     32 C         139.2873  145.7932  156.0262 C.3     1  UNL1        0.4215
     33 F         138.5933  146.4010  154.8434 F       1  UNL1       -0.1657
     34 F         139.3126  144.4653  155.3289 F       1  UNL1       -0.1657
     35 F         139.2621  147.1211  156.7234 F       1  UNL1       -0.1657
@<TRIPOS>BOND
     1    20    21    1
     2    21    19    1
     3    19     9    1
     4     9    10   ar
     5    10    11   ar
     6    11    12   ar
     7    12    15    1
     8    15    16    1
     9    15    17    2
    10    15    18    2
    11    12    13   ar
    12    13    14   ar
    13    14     1    1
    14     1     2    2
    15     1     3   am
    16     3     4    1
    17     4     5    1
    18     5     6    1
    19     6    26    1
    20    26    27   ar
    21    27    28   ar
    22    28    29   ar
    23    29    32    1
    24    32    33    1
    25    32    34    1
    26    32    35    1
    27    29    30   ar
    28    30    31   ar
    29     6     7    1
    30     7     8    1
    31    21    22    1
    32    22    23    1
    33    22    24    1
    34    22    25    1
    35    14     9   ar
    36     8     3    1
    37    31    26   ar
