@<TRIPOS>MOLECULE
*****
 26 29 0 0 0
SMALL
GASTEIGER

@<TRIPOS>ATOM
      1 C         140.9606  138.5059  162.2574 C.ar    1  UNL1        0.1917
      2 N         139.7959  137.5885  162.0294 N.ar    1  UNL1       -0.1268
      3 N         138.9916  137.5374  163.2945 N.ar    1  UNL1       -0.1316
      4 C         139.6592  138.4231  164.3044 C.ar    1  UNL1        0.1615
      5 N         140.8761  139.0217  163.6634 N.ar    1  UNL1       -0.2940
      6 C         141.7501  139.9590  164.4428 C.3     1  UNL1        0.1302
      7 C         141.4072  140.2978  165.8633 C.3     1  UNL1        0.1186
      8 N         140.1903  139.6992  166.5043 N.am    1  UNL1       -0.2688
      9 C         139.8474  140.0380  167.9247 C.2     1  UNL1        0.2494
     10 O         138.6305  139.4394  168.5657 O.2     1  UNL1       -0.2699
     11 C         139.3163  138.7618  165.7248 C.3     1  UNL1        0.1343
     12 C         138.0994  138.1632  166.3658 C.3     1  UNL1        0.0298
     13 C         140.7213  140.9753  168.7041 C.ar    1  UNL1        0.0546
     14 C         142.1012  140.5507  169.1108 C.ar    1  UNL1        0.0069
     15 C         142.9752  141.4881  169.8903 C.ar    1  UNL1        0.0307
     16 C         142.4692  142.8501  170.2629 C.ar    1  UNL1        0.1506
     17 F         143.3432  143.7876  171.0424 F       1  UNL1       -0.2033
     18 C         141.0893  143.2748  169.8562 C.ar    1  UNL1        0.0852
     19 CL        140.5833  144.6368  170.2289 Cl      1  UNL1       -0.0799
     20 C         140.2153  142.3374  169.0768 C.ar    1  UNL1        0.0182
     21 C         143.5603  140.8176  158.2852 C.3     1  UNL1        0.0744
     22 C         143.2181  139.9101  159.4295 C.ar    1  UNL1        0.1481
     23 N         144.0986  138.8364  159.9970 N.ar    1  UNL1       -0.1929
     24 S         143.3600  138.1797  161.1254 S.2     1  UNL1        0.0369
     25 C         142.0232  138.8475  161.2553 C.ar    1  UNL1        0.1652
     26 N         141.9354  139.9170  160.2071 N.ar    1  UNL1       -0.2190
@<TRIPOS>BOND
     1    21    22    1
     2    22    23   ar
     3    23    24   ar
     4    24    25   ar
     5    25     1    1
     6     1     2   ar
     7     2     3   ar
     8     3     4   ar
     9     4     5   ar
    10     5     6    1
    11     6     7    1
    12     7     8    1
    13     8     9   am
    14     9    10    2
    15     9    13    1
    16    13    14   ar
    17    14    15   ar
    18    15    16   ar
    19    16    17    1
    20    16    18   ar
    21    18    19    1
    22    18    20   ar
    23     8    11    1
    24    11    12    1
    25    25    26   ar
    26    26    22   ar
    27     5     1   ar
    28    20    13   ar
    29    11     4    1
@<TRIPOS>MOLECULE
*****
 26 29 0 0 0
SMALL
GASTEIGER

@<TRIPOS>ATOM
      1 C         139.5564  142.4752  161.1773 C.ar    1  UNL1        0.1917
      2 N         138.6293  141.4086  160.6745 N.ar    1  UNL1       -0.1268
      3 N         138.3060  140.4972  161.8211 N.ar    1  UNL1       -0.1316
      4 C         139.0333  141.0006  163.0326 C.ar    1  UNL1        0.1615
      5 N         139.8060  142.2231  162.6347 N.ar    1  UNL1       -0.2940
      6 C         140.6372  142.9487  163.6509 C.3     1  UNL1        0.1302
      7 C         140.6956  142.4518  165.0651 C.3     1  UNL1        0.1186
      8 N         139.9228  141.2293  165.4630 N.am    1  UNL1       -0.2688
      9 C         139.9812  140.7324  166.8770 C.2     1  UNL1        0.2494
     10 O         139.2085  139.5099  167.2749 O.2     1  UNL1       -0.2699
     11 C         139.0916  140.5037  164.4467 C.3     1  UNL1        0.1343
     12 C         138.3189  139.2812  164.8446 C.3     1  UNL1        0.0298
     13 C         140.8124  141.4580  167.8932 C.ar    1  UNL1        0.0546
     14 C         142.1919  140.9687  168.2213 C.ar    1  UNL1        0.0069
     15 C         143.0230  141.6944  169.2375 C.ar    1  UNL1        0.0307
     16 C         142.4747  142.9092  169.9256 C.ar    1  UNL1        0.1506
     17 F         143.3059  143.6349  170.9418 F       1  UNL1       -0.2033
     18 C         141.0952  143.3985  169.5975 C.ar    1  UNL1        0.0852
     19 CL        140.5469  144.6134  170.2856 Cl      1  UNL1       -0.0799
     20 C         140.2641  142.6729  168.5813 C.ar    1  UNL1        0.0182
     21 C         140.2088  146.1537  157.4458 C.3     1  UNL1        0.0744
     22 C         140.4325  145.2879  158.6501 C.ar    1  UNL1        0.1481
     23 N         141.6062  145.3591  159.5814 N.ar    1  UNL1       -0.1929
     24 S         141.4209  144.3141  160.6415 S.2     1  UNL1        0.0369
     25 C         140.1326  143.5971  160.3653 C.ar    1  UNL1        0.1652
     26 N         139.5217  144.1989  159.1346 N.ar    1  UNL1       -0.2190
@<TRIPOS>BOND
     1    21    22    1
     2    22    23   ar
     3    23    24   ar
     4    24    25   ar
     5    25     1    1
     6     1     2   ar
     7     2     3   ar
     8     3     4   ar
     9     4     5   ar
    10     5     6    1
    11     6     7    1
    12     7     8    1
    13     8     9   am
    14     9    10    2
    15     9    13    1
    16    13    14   ar
    17    14    15   ar
    18    15    16   ar
    19    16    17    1
    20    16    18   ar
    21    18    19    1
    22    18    20   ar
    23     8    11    1
    24    11    12    1
    25    25    26   ar
    26    26    22   ar
    27     5     1   ar
    28    20    13   ar
    29    11     4    1
@<TRIPOS>MOLECULE
*****
 26 29 0 0 0
SMALL
GASTEIGER

@<TRIPOS>ATOM
      1 C         142.8277  143.3885  158.8706 C.ar    1  UNL1        0.1917
      2 N         142.4931  144.7305  158.2900 N.ar    1  UNL1       -0.1268
      3 N         141.6360  145.4629  159.2794 N.ar    1  UNL1       -0.1316
      4 C         141.4409  144.5737  160.4715 C.ar    1  UNL1        0.1615
      5 N         142.1775  143.2916  160.2189 N.ar    1  UNL1       -0.2940
      6 C         142.1609  142.2016  161.2492 C.3     1  UNL1        0.1302
      7 C         141.4078  142.3936  162.5322 C.3     1  UNL1        0.1186
      8 N         140.6712  143.6757  162.7848 N.am    1  UNL1       -0.2688
      9 C         139.9181  143.8677  164.0677 C.2     1  UNL1        0.2494
     10 O         139.1816  145.1498  164.3203 O.2     1  UNL1       -0.2699
     11 C         140.6878  144.7657  161.7544 C.3     1  UNL1        0.1343
     12 C         139.9513  146.0478  162.0070 C.3     1  UNL1        0.0298
     13 C         139.9015  142.7777  165.0980 C.ar    1  UNL1        0.0546
     14 C         140.8228  142.8485  166.2796 C.ar    1  UNL1        0.0069
     15 C         140.8062  141.7584  167.3099 C.ar    1  UNL1        0.0307
     16 C         139.8684  140.5976  167.1586 C.ar    1  UNL1        0.1506
     17 F         139.8517  139.5075  168.1889 F       1  UNL1       -0.2033
     18 C         138.9471  140.5268  165.9770 C.ar    1  UNL1        0.0852
     19 CL        138.0092  139.3659  165.8257 Cl      1  UNL1       -0.0799
     20 C         138.9637  141.6168  164.9467 C.ar    1  UNL1        0.0182
     21 C         146.3053  140.9714  155.7171 C.3     1  UNL1        0.0744
     22 C         145.2640  141.2184  156.7682 C.ar    1  UNL1        0.1481
     23 N         144.6457  140.1808  157.6577 N.ar    1  UNL1       -0.1929
     24 S         143.6578  140.8675  158.5536 S.2     1  UNL1        0.0369
     25 C         143.6656  142.3294  158.2177 C.ar    1  UNL1        0.1652
     26 N         144.6583  142.5463  157.1143 N.ar    1  UNL1       -0.2190
@<TRIPOS>BOND
     1    21    22    1
     2    22    23   ar
     3    23    24   ar
     4    24    25   ar
     5    25     1    1
     6     1     2   ar
     7     2     3   ar
     8     3     4   ar
     9     4     5   ar
    10     5     6    1
    11     6     7    1
    12     7     8    1
    13     8     9   am
    14     9    10    2
    15     9    13    1
    16    13    14   ar
    17    14    15   ar
    18    15    16   ar
    19    16    17    1
    20    16    18   ar
    21    18    19    1
    22    18    20   ar
    23     8    11    1
    24    11    12    1
    25    25    26   ar
    26    26    22   ar
    27     5     1   ar
    28    20    13   ar
    29    11     4    1
@<TRIPOS>MOLECULE
*****
 26 29 0 0 0
SMALL
GASTEIGER

@<TRIPOS>ATOM
      1 C         142.6725  141.9969  161.2554 C.ar    1  UNL1        0.1917
      2 N         143.6657  140.9942  160.7476 N.ar    1  UNL1       -0.1268
      3 N         144.0856  140.1325  161.9014 N.ar    1  UNL1       -0.1316
      4 C         143.3517  140.6026  163.1223 C.ar    1  UNL1        0.1615
      5 N         142.4784  141.7549  162.7230 N.ar    1  UNL1       -0.2940
      6 C         141.6192  142.4350  163.7474 C.3     1  UNL1        0.1302
      7 C         141.6334  141.9627  165.1711 C.3     1  UNL1        0.1186
      8 N         142.5068  140.8104  165.5703 N.am    1  UNL1       -0.2688
      9 C         142.5210  140.3381  166.9939 C.2     1  UNL1        0.2494
     10 O         143.3944  139.1857  167.3932 O.2     1  UNL1       -0.2699
     11 C         143.3660  140.1303  164.5459 C.3     1  UNL1        0.1343
     12 C         144.2393  138.9780  164.9451 C.3     1  UNL1        0.0298
     13 C         141.6619  141.0181  168.0183 C.ar    1  UNL1        0.0546
     14 C         142.0189  142.3916  168.5042 C.ar    1  UNL1        0.0069
     15 C         141.1597  143.0716  169.5286 C.ar    1  UNL1        0.0307
     16 C         139.9436  142.3782  170.0671 C.ar    1  UNL1        0.1506
     17 F         139.0844  143.0582  171.0915 F       1  UNL1       -0.2033
     18 C         139.5865  141.0047  169.5812 C.ar    1  UNL1        0.0852
     19 CL        138.3703  140.3112  170.1198 Cl      1  UNL1       -0.0799
     20 C         140.4457  140.3247  168.5569 C.ar    1  UNL1        0.0182
     21 C         141.8167  145.8995  157.8032 C.3     1  UNL1        0.0744
     22 C         141.5993  144.8496  158.8522 C.ar    1  UNL1        0.1481
     23 N         140.2934  144.5209  159.5131 N.ar    1  UNL1       -0.1929
     24 S         140.5366  143.4122  160.4939 S.2     1  UNL1        0.0369
     25 C         141.9926  143.0558  160.4390 C.ar    1  UNL1        0.1652
     26 N         142.6494  143.9442  159.4244 N.ar    1  UNL1       -0.2190
@<TRIPOS>BOND
     1    21    22    1
     2    22    23   ar
     3    23    24   ar
     4    24    25   ar
     5    25     1    1
     6     1     2   ar
     7     2     3   ar
     8     3     4   ar
     9     4     5   ar
    10     5     6    1
    11     6     7    1
    12     7     8    1
    13     8     9   am
    14     9    10    2
    15     9    13    1
    16    13    14   ar
    17    14    15   ar
    18    15    16   ar
    19    16    17    1
    20    16    18   ar
    21    18    19    1
    22    18    20   ar
    23     8    11    1
    24    11    12    1
    25    25    26   ar
    26    26    22   ar
    27     5     1   ar
    28    20    13   ar
    29    11     4    1
@<TRIPOS>MOLECULE
*****
 26 29 0 0 0
SMALL
GASTEIGER

@<TRIPOS>ATOM
      1 C         140.6359  139.0056  161.9929 C.ar    1  UNL1        0.1917
      2 N         141.7600  138.0826  161.6260 N.ar    1  UNL1       -0.1268
      3 N         142.5886  137.8502  162.8545 N.ar    1  UNL1       -0.1316
      4 C         141.9768  138.6295  163.9807 C.ar    1  UNL1        0.1615
      5 N         140.7699  139.3436  163.4482 N.ar    1  UNL1       -0.2940
      6 C         139.9489  140.2093  164.3572 C.3     1  UNL1        0.1302
      7 C         140.3347  140.3610  165.7989 C.3     1  UNL1        0.1186
      8 N         141.5416  139.6470  166.3314 N.am    1  UNL1       -0.2688
      9 C         141.9275  139.7987  167.7729 C.2     1  UNL1        0.2494
     10 O         143.1343  139.0846  168.3054 O.2     1  UNL1       -0.2699
     11 C         142.3626  138.7812  165.4222 C.3     1  UNL1        0.1343
     12 C         143.5695  138.0672  165.9547 C.3     1  UNL1        0.0298
     13 C         141.1064  140.6644  168.6819 C.ar    1  UNL1        0.0546
     14 C         139.8735  140.1111  169.3329 C.ar    1  UNL1        0.0069
     15 C         139.0525  140.9769  170.2420 C.ar    1  UNL1        0.0307
     16 C         139.4644  142.3959  170.5000 C.ar    1  UNL1        0.1506
     17 F         138.6433  143.2617  171.4091 F       1  UNL1       -0.2033
     18 C         140.6973  142.9492  169.8491 C.ar    1  UNL1        0.0852
     19 CL        141.1092  144.3683  170.1072 Cl      1  UNL1       -0.0799
     20 C         141.5183  142.0835  168.9400 C.ar    1  UNL1        0.0182
     21 C         138.1156  141.7145  158.2259 C.3     1  UNL1        0.0744
     22 C         138.4073  140.7484  159.3356 C.ar    1  UNL1        0.1481
     23 N         137.4305  139.7896  159.9493 N.ar    1  UNL1       -0.1929
     24 S         138.1465  139.0200  161.0195 S.2     1  UNL1        0.0369
     25 C         139.5657  139.5032  161.0671 C.ar    1  UNL1        0.1652
     26 N         139.7269  140.5714  160.0265 N.ar    1  UNL1       -0.2190
@<TRIPOS>BOND
     1    21    22    1
     2    22    23   ar
     3    23    24   ar
     4    24    25   ar
     5    25     1    1
     6     1     2   ar
     7     2     3   ar
     8     3     4   ar
     9     4     5   ar
    10     5     6    1
    11     6     7    1
    12     7     8    1
    13     8     9   am
    14     9    10    2
    15     9    13    1
    16    13    14   ar
    17    14    15   ar
    18    15    16   ar
    19    16    17    1
    20    16    18   ar
    21    18    19    1
    22    18    20   ar
    23     8    11    1
    24    11    12    1
    25    25    26   ar
    26    26    22   ar
    27     5     1   ar
    28    20    13   ar
    29    11     4    1
@<TRIPOS>MOLECULE
*****
 26 29 0 0 0
SMALL
GASTEIGER

@<TRIPOS>ATOM
      1 C         140.6574  140.7054  168.3462 C.ar    1  UNL1        0.1917
      2 N         139.4558  139.9932  168.8931 N.ar    1  UNL1       -0.1268
      3 N         138.8616  139.1711  167.7882 N.ar    1  UNL1       -0.1316
      4 C         139.6958  139.3751  166.5584 C.ar    1  UNL1        0.1615
      5 N         140.8057  140.3234  166.9033 N.ar    1  UNL1       -0.2940
      6 C         141.8080  140.7165  165.8589 C.3     1  UNL1        0.1302
      7 C         141.7005  140.1613  164.4695 C.3     1  UNL1        0.1186
      8 N         140.5906  139.2130  164.1246 N.am    1  UNL1       -0.2688
      9 C         140.4830  138.6579  162.7353 C.2     1  UNL1        0.2494
     10 O         139.3732  137.7096  162.3904 O.2     1  UNL1       -0.2699
     11 C         139.5883  138.8199  165.1691 C.3     1  UNL1        0.1343
     12 C         138.4784  137.8717  164.8242 C.3     1  UNL1        0.0298
     13 C         141.4853  139.0510  161.6909 C.ar    1  UNL1        0.0546
     14 C         142.7470  138.2568  161.5256 C.ar    1  UNL1        0.0069
     15 C         143.7493  138.6499  160.4811 C.ar    1  UNL1        0.0307
     16 C         143.4900  139.8373  159.6020 C.ar    1  UNL1        0.1506
     17 F         144.4923  140.2305  158.5576 F       1  UNL1       -0.2033
     18 C         142.2283  140.6315  159.7673 C.ar    1  UNL1        0.0852
     19 CL        141.9689  141.8190  158.8882 Cl      1  UNL1       -0.0799
     20 C         141.2260  140.2384  160.8117 C.ar    1  UNL1        0.0182
     21 C         144.9655  143.0673  170.2806 C.3     1  UNL1        0.0744
     22 C         143.5335  142.7218  169.9975 C.ar    1  UNL1        0.1481
     23 N         142.3305  143.4151  170.5651 N.ar    1  UNL1       -0.1929
     24 S         141.1066  142.7441  170.0155 S.2     1  UNL1        0.0369
     25 C         141.5533  141.6361  169.1084 C.ar    1  UNL1        0.1652
     26 N         143.0532  141.6223  169.0973 N.ar    1  UNL1       -0.2190
@<TRIPOS>BOND
     1    21    22    1
     2    22    23   ar
     3    23    24   ar
     4    24    25   ar
     5    25     1    1
     6     1     2   ar
     7     2     3   ar
     8     3     4   ar
     9     4     5   ar
    10     5     6    1
    11     6     7    1
    12     7     8    1
    13     8     9   am
    14     9    10    2
    15     9    13    1
    16    13    14   ar
    17    14    15   ar
    18    15    16   ar
    19    16    17    1
    20    16    18   ar
    21    18    19    1
    22    18    20   ar
    23     8    11    1
    24    11    12    1
    25    25    26   ar
    26    26    22   ar
    27     5     1   ar
    28    20    13   ar
    29    11     4    1
@<TRIPOS>MOLECULE
*****
 26 29 0 0 0
SMALL
GASTEIGER

@<TRIPOS>ATOM
      1 C         139.8370  141.7050  160.0343 C.ar    1  UNL1        0.1917
      2 N         139.1393  140.6702  159.2021 N.ar    1  UNL1       -0.1268
      3 N         138.8132  139.5051  160.0888 N.ar    1  UNL1       -0.1316
      4 C         139.3093  139.8198  161.4689 C.ar    1  UNL1        0.1615
      5 N         139.9421  141.1794  161.4353 N.ar    1  UNL1       -0.2940
      6 C         140.5321  141.7632  162.6847 C.3     1  UNL1        0.1302
      7 C         140.4895  140.9873  163.9678 C.3     1  UNL1        0.1186
      8 N         139.8568  139.6277  164.0014 N.am    1  UNL1       -0.2688
      9 C         139.8141  138.8518  165.2845 C.2     1  UNL1        0.2494
     10 O         139.1814  137.4922  165.3181 O.2     1  UNL1       -0.2699
     11 C         139.2667  139.0439  162.7520 C.3     1  UNL1        0.1343
     12 C         138.6340  137.6843  162.7856 C.3     1  UNL1        0.0298
     13 C         140.4042  139.4356  166.5338 C.ar    1  UNL1        0.0546
     14 C         141.8932  139.4836  166.7086 C.ar    1  UNL1        0.0069
     15 C         142.4833  140.0674  167.9581 C.ar    1  UNL1        0.0307
     16 C         141.5843  140.6032  169.0327 C.ar    1  UNL1        0.1506
     17 F         142.1744  141.1870  170.2821 F       1  UNL1       -0.2033
     18 C         140.0953  140.5552  168.8579 C.ar    1  UNL1        0.0852
     19 CL        139.1964  141.0911  169.9325 Cl      1  UNL1       -0.0799
     20 C         139.5053  139.9715  167.6085 C.ar    1  UNL1        0.0182
     21 C         140.2148  146.2954  157.4525 C.3     1  UNL1        0.0744
     22 C         140.5147  145.1423  158.3638 C.ar    1  UNL1        0.1481
     23 N         141.7187  145.0075  159.2482 N.ar    1  UNL1       -0.1929
     24 S         141.6114  143.7034  159.9817 S.2     1  UNL1        0.0369
     25 C         140.3410  143.0323  159.5505 C.ar    1  UNL1        0.1652
     26 N         139.6633  143.9216  158.5506 N.ar    1  UNL1       -0.2190
@<TRIPOS>BOND
     1    21    22    1
     2    22    23   ar
     3    23    24   ar
     4    24    25   ar
     5    25     1    1
     6     1     2   ar
     7     2     3   ar
     8     3     4   ar
     9     4     5   ar
    10     5     6    1
    11     6     7    1
    12     7     8    1
    13     8     9   am
    14     9    10    2
    15     9    13    1
    16    13    14   ar
    17    14    15   ar
    18    15    16   ar
    19    16    17    1
    20    16    18   ar
    21    18    19    1
    22    18    20   ar
    23     8    11    1
    24    11    12    1
    25    25    26   ar
    26    26    22   ar
    27     5     1   ar
    28    20    13   ar
    29    11     4    1
@<TRIPOS>MOLECULE
*****
 26 29 0 0 0
SMALL
GASTEIGER

@<TRIPOS>ATOM
      1 C         139.3071  141.6659  161.1334 C.ar    1  UNL1        0.1917
      2 N         138.4586  142.8383  160.7389 N.ar    1  UNL1       -0.1268
      3 N         138.2594  143.6957  161.9535 N.ar    1  UNL1       -0.1316
      4 C         138.9846  143.0532  163.0986 C.ar    1  UNL1        0.1615
      5 N         139.6321  141.7987  162.5917 N.ar    1  UNL1       -0.2940
      6 C         140.4341  140.9394  163.5236 C.3     1  UNL1        0.1302
      7 C         140.5886  141.3345  164.9624 C.3     1  UNL1        0.1186
      8 N         139.9410  142.5891  165.4692 N.am    1  UNL1       -0.2688
      9 C         140.0955  142.9843  166.9079 C.2     1  UNL1        0.2494
     10 O         139.4479  144.2388  167.4148 O.2     1  UNL1       -0.2699
     11 C         139.1390  143.4484  164.5373 C.3     1  UNL1        0.1343
     12 C         138.4915  144.7029  165.0441 C.3     1  UNL1        0.0298
     13 C         140.8974  142.1250  167.8398 C.ar    1  UNL1        0.0546
     14 C         140.4147  140.7497  168.1943 C.ar    1  UNL1        0.0069
     15 C         141.2167  139.8904  169.1262 C.ar    1  UNL1        0.0307
     16 C         142.5014  140.4063  169.7035 C.ar    1  UNL1        0.1506
     17 F         143.3034  139.5470  170.6355 F       1  UNL1       -0.2033
     18 C         142.9841  141.7816  169.3491 C.ar    1  UNL1        0.0852
     19 CL        144.2688  142.2975  169.9265 Cl      1  UNL1       -0.0799
     20 C         142.1821  142.6409  168.4172 C.ar    1  UNL1        0.0182
     21 C         142.2662  138.6470  157.9694 C.3     1  UNL1        0.0744
     22 C         141.1125  139.1680  158.7741 C.ar    1  UNL1        0.1481
     23 N         139.7624  138.5259  158.8975 N.ar    1  UNL1       -0.1929
     24 S         138.9217  139.3836  159.7964 S.2     1  UNL1        0.0369
     25 C         139.7523  140.5555  160.2284 C.ar    1  UNL1        0.1652
     26 N         141.1062  140.4223  159.5966 N.ar    1  UNL1       -0.2190
@<TRIPOS>BOND
     1    21    22    1
     2    22    23   ar
     3    23    24   ar
     4    24    25   ar
     5    25     1    1
     6     1     2   ar
     7     2     3   ar
     8     3     4   ar
     9     4     5   ar
    10     5     6    1
    11     6     7    1
    12     7     8    1
    13     8     9   am
    14     9    10    2
    15     9    13    1
    16    13    14   ar
    17    14    15   ar
    18    15    16   ar
    19    16    17    1
    20    16    18   ar
    21    18    19    1
    22    18    20   ar
    23     8    11    1
    24    11    12    1
    25    25    26   ar
    26    26    22   ar
    27     5     1   ar
    28    20    13   ar
    29    11     4    1
@<TRIPOS>MOLECULE
*****
 26 29 0 0 0
SMALL
GASTEIGER

@<TRIPOS>ATOM
      1 C         140.8729  142.3963  159.5477 C.ar    1  UNL1        0.1917
      2 N         141.7504  143.4237  158.8962 N.ar    1  UNL1       -0.1268
      3 N         142.6839  143.9641  159.9387 N.ar    1  UNL1       -0.1316
      4 C         142.3833  143.2706  161.2343 C.ar    1  UNL1        0.1615
      5 N         141.2640  142.3016  160.9927 N.ar    1  UNL1       -0.2940
      6 C         140.7457  141.4583  162.1196 C.3     1  UNL1        0.1302
      7 C         141.3465  141.5839  163.4883 C.3     1  UNL1        0.1186
      8 N         142.4658  142.5529  163.7300 N.am    1  UNL1       -0.2688
      9 C         143.0667  142.6785  165.0986 C.2     1  UNL1        0.2494
     10 O         144.1859  143.6474  165.3402 O.2     1  UNL1       -0.2699
     11 C         142.9842  143.3962  162.6029 C.3     1  UNL1        0.1343
     12 C         144.1034  144.3651  162.8446 C.3     1  UNL1        0.0298
     13 C         142.5483  141.8352  166.2255 C.ar    1  UNL1        0.0546
     14 C         143.0174  140.4188  166.3797 C.ar    1  UNL1        0.0069
     15 C         142.4990  139.5755  167.5067 C.ar    1  UNL1        0.0307
     16 C         141.5114  140.1486  168.4795 C.ar    1  UNL1        0.1506
     17 F         140.9930  139.3052  169.6065 F       1  UNL1       -0.2033
     18 C         141.0423  141.5649  168.3253 C.ar    1  UNL1        0.0852
     19 CL        140.0547  142.1380  169.2981 Cl      1  UNL1       -0.0799
     20 C         141.5607  142.4082  167.1984 C.ar    1  UNL1        0.0182
     21 C         136.5225  141.1245  156.8390 C.3     1  UNL1        0.0744
     22 C         137.7940  141.0183  157.6276 C.ar    1  UNL1        0.1481
     23 N         138.4719  139.7453  158.0400 N.ar    1  UNL1       -0.1929
     24 S         139.7078  140.1066  158.8095 S.2     1  UNL1        0.0369
     25 C         139.7937  141.6028  158.8726 C.ar    1  UNL1        0.1652
     26 N         138.6109  142.1663  158.1421 N.ar    1  UNL1       -0.2190
@<TRIPOS>BOND
     1    21    22    1
     2    22    23   ar
     3    23    24   ar
     4    24    25   ar
     5    25     1    1
     6     1     2   ar
     7     2     3   ar
     8     3     4   ar
     9     4     5   ar
    10     5     6    1
    11     6     7    1
    12     7     8    1
    13     8     9   am
    14     9    10    2
    15     9    13    1
    16    13    14   ar
    17    14    15   ar
    18    15    16   ar
    19    16    17    1
    20    16    18   ar
    21    18    19    1
    22    18    20   ar
    23     8    11    1
    24    11    12    1
    25    25    26   ar
    26    26    22   ar
    27     5     1   ar
    28    20    13   ar
    29    11     4    1
