@<TRIPOS>MOLECULE
*****
 16 18 0 0 0
SMALL
GASTEIGER

@<TRIPOS>ATOM
      1 C         143.2109  142.2832  167.4069 C.3     1  UNL1        0.0229
      2 C         142.4594  142.0779  168.6887 C.3     1  UNL1        0.0899
      3 C         142.9809  142.6660  169.9663 C.3     1  UNL1        0.0886
      4 N         142.2294  142.4607  171.2481 N.3     1  UNL1       -0.2947
      5 C         140.9564  141.6674  171.2524 C.3     1  UNL1        0.0889
      6 C         140.4349  141.0793  169.9749 C.3     1  UNL1        0.0942
      7 C         139.2173  140.2574  169.6718 C.3     1  UNL1        0.0503
      8 C         139.2162  139.9546  168.2027 C.ar    1  UNL1        0.0112
      9 C         138.2644  139.1829  167.3376 C.ar    1  UNL1        0.0010
     10 C         138.5295  139.0460  165.8676 C.ar    1  UNL1        0.0306
     11 C         139.7464  139.6809  165.2627 C.ar    1  UNL1        0.1397
     12 CL        140.0115  139.5440  163.7926 Cl      1  UNL1       -0.0613
     13 N         140.6983  140.4526  166.1278 N.ar    1  UNL1       -0.2196
     14 C         140.4332  140.5895  167.5978 C.ar    1  UNL1        0.1286
     15 N         141.1864  141.2846  168.6930 N.pl3   1  UNL1       -0.2937
     16 H         141.9999  143.3877  171.6066 H       1  UNL1        0.1233
@<TRIPOS>BOND
     1     2     1    1
     2     2     3    1
     3     3     4    1
     4     4     5    1
     5     6     5    1
     6     6     7    1
     7     7     8    1
     8     8     9   ar
     9     9    10   ar
    10    10    11   ar
    11    11    12    1
    12    11    13   ar
    13    13    14   ar
    14    14    15    1
    15    15     2    1
    16    15     6    1
    17    14     8   ar
    18     4    16    1
@<TRIPOS>MOLECULE
*****
 16 18 0 0 0
SMALL
GASTEIGER

@<TRIPOS>ATOM
      1 C         137.7330  143.7287  163.2011 C.3     1  UNL1        0.0229
      2 C         139.1386  144.2367  163.3283 C.3     1  UNL1        0.0899
      3 C         139.5472  145.4968  162.6247 C.3     1  UNL1        0.0886
      4 N         140.9529  146.0048  162.7520 N.3     1  UNL1       -0.2947
      5 C         141.9498  145.2527  163.5828 C.3     1  UNL1        0.0889
      6 C         141.5412  143.9926  164.2864 C.3     1  UNL1        0.0942
      7 C         142.2986  143.0446  165.1682 C.3     1  UNL1        0.0503
      8 C         141.3611  141.9507  165.5860 C.ar    1  UNL1        0.0112
      9 C         141.5520  140.7422  166.4538 C.ar    1  UNL1        0.0010
     10 C         140.4061  139.8056  166.6979 C.ar    1  UNL1        0.0306
     11 C         139.0693  140.0775  166.0742 C.ar    1  UNL1        0.1397
     12 CL        137.9232  139.1409  166.3183 Cl      1  UNL1       -0.0613
     13 N         138.8784  141.2861  165.2065 N.ar    1  UNL1       -0.2196
     14 C         140.0243  142.2227  164.9624 C.ar    1  UNL1        0.1286
     15 N         140.1356  143.4846  164.1591 N.pl3   1  UNL1       -0.2937
     16 H         140.8920  146.9445  163.1441 H       1  UNL1        0.1233
@<TRIPOS>BOND
     1     2     1    1
     2     2     3    1
     3     3     4    1
     4     4     5    1
     5     6     5    1
     6     6     7    1
     7     7     8    1
     8     8     9   ar
     9     9    10   ar
    10    10    11   ar
    11    11    12    1
    12    11    13   ar
    13    13    14   ar
    14    14    15    1
    15    15     2    1
    16    15     6    1
    17    14     8   ar
    18     4    16    1
@<TRIPOS>MOLECULE
*****
 16 18 0 0 0
SMALL
GASTEIGER

@<TRIPOS>ATOM
      1 C         139.0873  144.7917  164.8923 C.3     1  UNL1        0.0229
      2 C         138.5923  143.4869  164.3422 C.3     1  UNL1        0.0899
      3 C         137.8144  143.4604  163.0599 C.3     1  UNL1        0.0886
      4 N         137.3194  142.1557  162.5098 N.3     1  UNL1       -0.2947
      5 C         137.6023  140.8775  163.2420 C.3     1  UNL1        0.0889
      6 C         138.3802  140.9040  164.5242 C.3     1  UNL1        0.0942
      7 C         138.8097  139.8135  165.4603 C.3     1  UNL1        0.0503
      8 C         139.5702  140.4442  166.5890 C.ar    1  UNL1        0.0112
      9 C         140.2310  139.8618  167.8031 C.ar    1  UNL1        0.0010
     10 C         140.9323  140.7598  168.7787 C.ar    1  UNL1        0.0306
     11 C         140.9728  142.2402  168.5401 C.ar    1  UNL1        0.1397
     12 CL        141.6741  143.1382  169.5157 Cl      1  UNL1       -0.0613
     13 N         140.3119  142.8225  167.3260 N.ar    1  UNL1       -0.2196
     14 C         139.6106  141.9245  166.3504 C.ar    1  UNL1        0.1286
     15 N         138.8752  142.2087  165.0743 N.pl3   1  UNL1       -0.2937
     16 H         137.7229  142.0569  161.5782 H       1  UNL1        0.1233
@<TRIPOS>BOND
     1     2     1    1
     2     2     3    1
     3     3     4    1
     4     4     5    1
     5     6     5    1
     6     6     7    1
     7     7     8    1
     8     8     9   ar
     9     9    10   ar
    10    10    11   ar
    11    11    12    1
    12    11    13   ar
    13    13    14   ar
    14    14    15    1
    15    15     2    1
    16    15     6    1
    17    14     8   ar
    18     4    16    1
@<TRIPOS>MOLECULE
*****
 16 18 0 0 0
SMALL
GASTEIGER

@<TRIPOS>ATOM
      1 C         144.4174  143.4998  165.3944 C.3     1  UNL1        0.0229
      2 C         144.3602  142.0797  164.9149 C.3     1  UNL1        0.0899
      3 C         145.3064  141.6087  163.8506 C.3     1  UNL1        0.0886
      4 N         145.2492  140.1886  163.3711 N.3     1  UNL1       -0.2947
      5 C         144.2457  139.2394  163.9559 C.3     1  UNL1        0.0889
      6 C         143.2994  139.7104  165.0201 C.3     1  UNL1        0.0942
      7 C         142.2111  139.0089  165.7775 C.3     1  UNL1        0.0503
      8 C         141.5957  139.9955  166.7250 C.ar    1  UNL1        0.0112
      9 C         140.4821  139.8694  167.7221 C.ar    1  UNL1        0.0010
     10 C         140.0765  141.0544  168.5473 C.ar    1  UNL1        0.0306
     11 C         140.7845  142.3656  168.3756 C.ar    1  UNL1        0.1397
     12 CL        140.3789  143.5507  169.2010 Cl      1  UNL1       -0.0613
     13 N         141.8981  142.4918  167.3786 N.ar    1  UNL1       -0.2196
     14 C         142.3037  141.3067  166.5533 C.ar    1  UNL1        0.1286
     15 N         143.3567  141.1305  165.4996 N.pl3   1  UNL1       -0.2937
     16 H         146.1702  139.7837  163.5392 H       1  UNL1        0.1233
@<TRIPOS>BOND
     1     2     1    1
     2     2     3    1
     3     3     4    1
     4     4     5    1
     5     6     5    1
     6     6     7    1
     7     7     8    1
     8     8     9   ar
     9     9    10   ar
    10    10    11   ar
    11    11    12    1
    12    11    13   ar
    13    13    14   ar
    14    14    15    1
    15    15     2    1
    16    15     6    1
    17    14     8   ar
    18     4    16    1
@<TRIPOS>MOLECULE
*****
 16 18 0 0 0
SMALL
GASTEIGER

@<TRIPOS>ATOM
      1 C         140.3942  140.6966  170.7479 C.3     1  UNL1        0.0229
      2 C         141.3420  141.2575  169.7296 C.3     1  UNL1        0.0899
      3 C         142.4980  142.1066  170.1684 C.3     1  UNL1        0.0886
      4 N         143.4458  142.6676  169.1501 N.3     1  UNL1       -0.2947
      5 C         143.2375  142.3794  167.6929 C.3     1  UNL1        0.0889
      6 C         142.0815  141.5303  167.2540 C.3     1  UNL1        0.0942
      7 C         141.6253  141.0792  165.8981 C.3     1  UNL1        0.0503
      8 C         140.3956  140.2395  166.0785 C.ar    1  UNL1        0.0112
      9 C         139.5131  139.5278  165.0961 C.ar    1  UNL1        0.0010
     10 C         138.3269  138.7483  165.5811 C.ar    1  UNL1        0.0306
     11 C         138.0232  138.6805  167.0485 C.ar    1  UNL1        0.1397
     12 CL        136.8369  137.9009  167.5336 Cl      1  UNL1       -0.0613
     13 N         138.9056  139.3921  168.0308 N.ar    1  UNL1       -0.2196
     14 C         140.0918  140.1716  167.5458 C.ar    1  UNL1        0.1286
     15 N         141.1338  140.9694  168.2723 N.pl3   1  UNL1       -0.2937
     16 H         144.3744  142.3200  169.3892 H       1  UNL1        0.1233
@<TRIPOS>BOND
     1     2     1    1
     2     2     3    1
     3     3     4    1
     4     4     5    1
     5     6     5    1
     6     6     7    1
     7     7     8    1
     8     8     9   ar
     9     9    10   ar
    10    10    11   ar
    11    11    12    1
    12    11    13   ar
    13    13    14   ar
    14    14    15    1
    15    15     2    1
    16    15     6    1
    17    14     8   ar
    18     4    16    1
@<TRIPOS>MOLECULE
*****
 16 18 0 0 0
SMALL
GASTEIGER

@<TRIPOS>ATOM
      1 C         143.3216  138.7134  164.3820 C.3     1  UNL1        0.0229
      2 C         141.8786  138.4018  164.1159 C.3     1  UNL1        0.0899
      3 C         141.4800  137.7322  162.8342 C.3     1  UNL1        0.0886
      4 N         140.0370  137.4206  162.5681 N.3     1  UNL1       -0.2947
      5 C         138.9928  137.7786  163.5836 C.3     1  UNL1        0.0889
      6 C         139.3914  138.4482  164.8652 C.3     1  UNL1        0.0942
      7 C         138.5910  138.9161  166.0444 C.3     1  UNL1        0.0503
      8 C         139.5393  139.5169  167.0393 C.ar    1  UNL1        0.0112
      9 C         139.3194  140.1395  168.3862 C.ar    1  UNL1        0.0010
     10 C         140.4860  140.6655  169.1688 C.ar    1  UNL1        0.0306
     11 C         141.8724  140.5688  168.6045 C.ar    1  UNL1        0.1397
     12 CL        143.0391  141.0948  169.3871 Cl      1  UNL1       -0.0613
     13 N         142.0923  139.9462  167.2576 N.ar    1  UNL1       -0.2196
     14 C         140.9257  139.4203  166.4750 C.ar    1  UNL1        0.1286
     15 N         140.8344  138.7598  165.1314 N.pl3   1  UNL1       -0.2937
     16 H         139.9750  136.4126  162.4247 H       1  UNL1        0.1233
@<TRIPOS>BOND
     1     2     1    1
     2     2     3    1
     3     3     4    1
     4     4     5    1
     5     6     5    1
     6     6     7    1
     7     7     8    1
     8     8     9   ar
     9     9    10   ar
    10    10    11   ar
    11    11    12    1
    12    11    13   ar
    13    13    14   ar
    14    14    15    1
    15    15     2    1
    16    15     6    1
    17    14     8   ar
    18     4    16    1
@<TRIPOS>MOLECULE
*****
 16 18 0 0 0
SMALL
GASTEIGER

@<TRIPOS>ATOM
      1 C         140.4414  139.6654  163.7690 C.3     1  UNL1        0.0229
      2 C         139.4283  140.7511  163.5568 C.3     1  UNL1        0.0899
      3 C         137.9874  140.3991  163.3335 C.3     1  UNL1        0.0886
      4 N         136.9744  141.4848  163.1214 N.3     1  UNL1       -0.2947
      5 C         137.4022  142.9224  163.1325 C.3     1  UNL1        0.0889
      6 C         138.8431  143.2743  163.3558 C.3     1  UNL1        0.0942
      7 C         139.5562  144.5925  163.4189 C.3     1  UNL1        0.0503
      8 C         141.0100  144.3215  163.6701 C.ar    1  UNL1        0.0112
      9 C         142.1889  145.2356  163.8269 C.ar    1  UNL1        0.0010
     10 C         143.5532  144.6640  164.0758 C.ar    1  UNL1        0.0306
     11 C         143.7386  143.1784  164.1679 C.ar    1  UNL1        0.1397
     12 CL        145.1030  142.6068  164.4168 Cl      1  UNL1       -0.0613
     13 N         142.5596  142.2643  164.0111 N.ar    1  UNL1       -0.2196
     14 C         141.1953  142.8359  163.7622 C.ar    1  UNL1        0.1286
     15 N         139.8562  142.1887  163.5679 N.pl3   1  UNL1       -0.2937
     16 H         136.2731  141.3806  163.8547 H       1  UNL1        0.1233
@<TRIPOS>BOND
     1     2     1    1
     2     2     3    1
     3     3     4    1
     4     4     5    1
     5     6     5    1
     6     6     7    1
     7     7     8    1
     8     8     9   ar
     9     9    10   ar
    10    10    11   ar
    11    11    12    1
    12    11    13   ar
    13    13    14   ar
    14    14    15    1
    15    15     2    1
    16    15     6    1
    17    14     8   ar
    18     4    16    1
@<TRIPOS>MOLECULE
*****
 16 18 0 0 0
SMALL
GASTEIGER

@<TRIPOS>ATOM
      1 C         154.8599  129.9161  166.4952 C.3     1  UNL1        0.0229
      2 C         154.8325  129.7874  165.0010 C.3     1  UNL1        0.0899
      3 C         154.9375  128.4340  164.3627 C.3     1  UNL1        0.0886
      4 N         154.9101  128.3053  162.8685 N.3     1  UNL1       -0.2947
      5 C         154.7776  129.5300  162.0126 C.3     1  UNL1        0.0889
      6 C         154.6725  130.8833  162.6508 C.3     1  UNL1        0.0942
      7 C         154.5336  132.2591  162.0696 C.3     1  UNL1        0.0503
      8 C         154.4752  133.2381  163.2045 C.ar    1  UNL1        0.0112
      9 C         154.3417  134.7318  163.2357 C.ar    1  UNL1        0.0010
     10 C         154.3110  135.4548  164.5496 C.ar    1  UNL1        0.0306
     11 C         154.4138  134.6840  165.8323 C.ar    1  UNL1        0.1397
     12 CL        154.3831  135.4070  167.1463 Cl      1  UNL1       -0.0613
     13 N         154.5473  133.1903  165.8011 N.ar    1  UNL1       -0.2196
     14 C         154.5780  132.4673  164.4872 C.ar    1  UNL1        0.1286
     15 N         154.7000  131.0120  164.1450 N.pl3   1  UNL1       -0.2937
     16 H         154.1221  127.6994  162.6396 H       1  UNL1        0.1233
@<TRIPOS>BOND
     1     2     1    1
     2     2     3    1
     3     3     4    1
     4     4     5    1
     5     6     5    1
     6     6     7    1
     7     7     8    1
     8     8     9   ar
     9     9    10   ar
    10    10    11   ar
    11    11    12    1
    12    11    13   ar
    13    13    14   ar
    14    14    15    1
    15    15     2    1
    16    15     6    1
    17    14     8   ar
    18     4    16    1
@<TRIPOS>MOLECULE
*****
 16 18 0 0 0
SMALL
GASTEIGER

@<TRIPOS>ATOM
      1 C         138.9927  140.5210  169.9598 C.3     1  UNL1        0.0229
      2 C         140.3244  141.2048  170.0552 C.3     1  UNL1        0.0899
      3 C         140.8700  141.6005  171.3952 C.3     1  UNL1        0.0886
      4 N         142.2017  142.2843  171.4905 N.3     1  UNL1       -0.2947
      5 C         142.9877  142.5724  170.2459 C.3     1  UNL1        0.0889
      6 C         142.4421  142.1767  168.9059 C.3     1  UNL1        0.0942
      7 C         142.9855  142.3289  167.5161 C.3     1  UNL1        0.0503
      8 C         141.9898  141.7392  166.5618 C.ar    1  UNL1        0.0112
      9 C         141.9886  141.6059  165.0677 C.ar    1  UNL1        0.0010
     10 C         140.8285  140.9559  164.3737 C.ar    1  UNL1        0.0306
     11 C         139.6696  140.4393  165.1737 C.ar    1  UNL1        0.1397
     12 CL        138.5095  139.7893  164.4796 Cl      1  UNL1       -0.0613
     13 N         139.6708  140.5726  166.6677 N.ar    1  UNL1       -0.2196
     14 C         140.8309  141.2225  167.3618 C.ar    1  UNL1        0.1286
     15 N         141.1104  141.4929  168.8105 N.pl3   1  UNL1       -0.2937
     16 H         142.7914  141.6992  172.0824 H       1  UNL1        0.1233
@<TRIPOS>BOND
     1     2     1    1
     2     2     3    1
     3     3     4    1
     4     4     5    1
     5     6     5    1
     6     6     7    1
     7     7     8    1
     8     8     9   ar
     9     9    10   ar
    10    10    11   ar
    11    11    12    1
    12    11    13   ar
    13    13    14   ar
    14    14    15    1
    15    15     2    1
    16    15     6    1
    17    14     8   ar
    18     4    16    1
