@<TRIPOS>MOLECULE
*****
 35 39 0 0 0
SMALL
GASTEIGER

@<TRIPOS>ATOM
      1 C         138.8438  138.5733  165.0512 C.ar    1  UNL1        0.0536
      2 C         138.1365  139.4538  164.0642 C.ar    1  UNL1        0.0042
      3 C         138.4609  139.3543  162.6031 C.ar    1  UNL1       -0.0041
      4 C         139.4927  138.3742  162.1290 C.ar    1  UNL1       -0.0208
      5 C         140.2001  137.4937  163.1161 C.ar    1  UNL1       -0.0041
      6 C         139.8757  137.5932  164.5772 C.ar    1  UNL1        0.0042
      7 C         140.4032  142.5226  169.2899 C.3     1  UNL1        0.1025
      8 C         139.5770  141.2745  169.1915 C.3     1  UNL1        0.0327
      9 C         138.8364  140.0330  168.7915 C.3     1  UNL1        0.0943
     10 N         139.0727  139.8035  167.3281 N.am    1  UNL1       -0.2761
     11 C         138.5194  138.6729  166.5123 C.2     1  UNL1        0.2490
     12 O         137.6418  137.6417  167.1576 O.2     1  UNL1       -0.2699
     13 C         139.9593  140.9033  166.8237 C.3     1  UNL1        0.0943
     14 C         140.2711  141.8124  167.9753 C.3     1  UNL1        0.0327
     15 C         140.9564  143.6533  170.1057 C.2     1  UNL1        0.3165
     16 O         140.1264  144.8789  170.3490 O.2     1  UNL1       -0.2501
     17 O         142.3396  143.5584  170.6782 O.3     1  UNL1       -0.4485
     18 C         143.7646  142.4697  168.7983 C.3     1  UNL1        0.0513
     19 C         143.2706  142.4775  170.2146 C.3     1  UNL1        0.2086
     20 C         139.8171  138.2747  160.6678 C.3     1  UNL1        0.0420
     21 C         141.0385  138.9538  160.1228 C.3     1  UNL1        0.0585
     22 C         141.7266  138.6266  158.8308 C.3     1  UNL1        0.0175
     23 C         142.8996  139.5498  158.6836 C.3     1  UNL1        0.0199
     24 C         142.9365  140.4476  159.8847 C.3     1  UNL1        0.0855
     25 N         141.7863  140.0792  160.7742 N.3     1  UNL1       -0.2971
     26 H         141.1688  140.8825  160.8922 H       1  UNL1        0.1233
     27 C         143.9463  141.5246  160.1497 C.3     1  UNL1        0.1470
     28 O         144.6303  142.2098  159.0040 O.3     1  UNL1       -0.3787
     29 H         145.2479  142.8746  159.3470 H       1  UNL1        0.2108
     30 C         144.2721  141.9165  161.5605 C.ar    1  UNL1        0.0055
     31 C         143.9552  143.2996  162.0470 C.ar    1  UNL1       -0.0019
     32 C         144.2810  143.6914  163.4578 C.ar    1  UNL1       -0.0002
     33 C         144.9236  142.7001  164.3821 C.ar    1  UNL1       -0.0000
     34 C         145.2404  141.3170  163.8956 C.ar    1  UNL1       -0.0002
     35 C         144.9147  140.9252  162.4848 C.ar    1  UNL1       -0.0019
@<TRIPOS>BOND
     1    18    19    1
     2    19    17    1
     3    17    15    1
     4    15    16    2
     5     7    15    1
     6     7     8    1
     7     8     9    1
     8     9    10    1
     9    10    11   am
    10    11    12    2
    11    11     1    1
    12     1     2   ar
    13     2     3   ar
    14     3     4   ar
    15     4    20    1
    16    21    20    1
    17    21    22    1
    18    22    23    1
    19    24    23    1
    20    24    27    1
    21    27    28    1
    22    27    30    1
    23    30    31   ar
    24    31    32   ar
    25    32    33   ar
    26    33    34   ar
    27    34    35   ar
    28    24    25    1
    29     4     5   ar
    30     5     6   ar
    31    10    13    1
    32    14    13    1
    33    14     7    1
    34    14     8    1
    35     6     1   ar
    36    25    21    1
    37    35    30   ar
    38    28    29    1
    39    25    26    1
@<TRIPOS>MOLECULE
*****
 35 39 0 0 0
SMALL
GASTEIGER

@<TRIPOS>ATOM
      1 C         144.0537  139.5316  164.5700 C.ar    1  UNL1        0.0536
      2 C         144.9784  140.6698  164.2547 C.ar    1  UNL1        0.0042
      3 C         145.0026  141.2561  162.8743 C.ar    1  UNL1       -0.0041
      4 C         144.1022  140.7042  161.8091 C.ar    1  UNL1       -0.0208
      5 C         143.1774  139.5660  162.1245 C.ar    1  UNL1       -0.0041
      6 C         143.1532  138.9797  163.5049 C.ar    1  UNL1        0.0042
      7 C         140.3094  140.2299  169.2055 C.3     1  UNL1        0.1025
      8 C         141.5570  139.4557  168.8986 C.3     1  UNL1        0.0327
      9 C         142.7824  138.8204  168.3114 C.3     1  UNL1        0.0943
     10 N         142.9369  139.3226  166.9065 N.am    1  UNL1       -0.2761
     11 C         144.0295  138.9453  165.9505 C.2     1  UNL1        0.2490
     12 O         145.0978  137.9817  166.3749 O.2     1  UNL1       -0.2699
     13 C         141.8070  140.2683  166.6253 C.3     1  UNL1        0.0943
     14 C         140.9542  140.3506  167.8566 C.3     1  UNL1        0.0327
     15 C         139.2168  140.6072  170.1615 C.2     1  UNL1        0.3165
     16 O         138.2791  139.5577  170.6808 O.2     1  UNL1       -0.2501
     17 O         139.0620  142.0338  170.5983 O.3     1  UNL1       -0.4485
     18 C         140.3393  144.2045  169.9610 C.3     1  UNL1        0.0513
     19 C         140.2694  142.9149  170.7239 C.3     1  UNL1        0.2086
     20 C         144.1264  141.2906  160.4286 C.3     1  UNL1        0.0420
     21 C         143.1575  142.3736  160.0567 C.3     1  UNL1        0.0585
     22 C         143.1133  143.1057  158.7483 C.3     1  UNL1        0.0175
     23 C         141.9913  144.0992  158.8107 C.3     1  UNL1        0.0199
     24 C         141.3420  143.9811  160.1577 C.3     1  UNL1        0.0855
     25 N         142.0628  142.9145  160.9278 N.3     1  UNL1       -0.2971
     26 H         141.4142  142.1666  161.1732 H       1  UNL1        0.1233
     27 C         140.1765  144.7878  160.6485 C.3     1  UNL1        0.1470
     28 O         139.7446  146.0138  159.9000 O.3     1  UNL1       -0.3787
     29 H         138.9830  146.4144  160.3477 H       1  UNL1        0.2108
     30 C         139.4429  144.3684  161.8879 C.ar    1  UNL1        0.0055
     31 C         139.6965  145.0769  163.1855 C.ar    1  UNL1       -0.0019
     32 C         138.9629  144.6574  164.4248 C.ar    1  UNL1       -0.0002
     33 C         137.9757  143.5295  164.3666 C.ar    1  UNL1       -0.0000
     34 C         137.7222  142.8211  163.0690 C.ar    1  UNL1       -0.0002
     35 C         138.4558  143.2405  161.8296 C.ar    1  UNL1       -0.0019
@<TRIPOS>BOND
     1    18    19    1
     2    19    17    1
     3    17    15    1
     4    15    16    2
     5     7    15    1
     6     7     8    1
     7     8     9    1
     8     9    10    1
     9    10    11   am
    10    11    12    2
    11    11     1    1
    12     1     2   ar
    13     2     3   ar
    14     3     4   ar
    15     4    20    1
    16    21    20    1
    17    21    22    1
    18    22    23    1
    19    24    23    1
    20    24    27    1
    21    27    28    1
    22    27    30    1
    23    30    31   ar
    24    31    32   ar
    25    32    33   ar
    26    33    34   ar
    27    34    35   ar
    28    24    25    1
    29     4     5   ar
    30     5     6   ar
    31    10    13    1
    32    14    13    1
    33    14     7    1
    34    14     8    1
    35     6     1   ar
    36    25    21    1
    37    35    30   ar
    38    28    29    1
    39    25    26    1
@<TRIPOS>MOLECULE
*****
 35 39 0 0 0
SMALL
GASTEIGER

@<TRIPOS>ATOM
      1 C         139.3689  141.8238  162.3260 C.ar    1  UNL1        0.0536
      2 C         138.6279  143.1039  162.0764 C.ar    1  UNL1        0.0042
      3 C         139.2665  144.1951  161.2694 C.ar    1  UNL1       -0.0041
      4 C         140.6463  144.0064  160.7119 C.ar    1  UNL1       -0.0208
      5 C         141.3873  142.7262  160.9616 C.ar    1  UNL1       -0.0041
      6 C         140.7487  141.6350  161.7686 C.ar    1  UNL1        0.0042
      7 C         139.7789  140.2909  168.1119 C.3     1  UNL1        0.1025
      8 C         139.0546  139.8106  166.8894 C.3     1  UNL1        0.0327
      9 C         138.4788  139.5677  165.5257 C.3     1  UNL1        0.0943
     10 N         139.0383  140.6028  164.5953 N.am    1  UNL1       -0.2761
     11 C         138.7303  140.7326  163.1330 C.2     1  UNL1        0.2490
     12 O         137.7838  139.7710  162.4777 O.2     1  UNL1       -0.2699
     13 C         139.9597  141.4854  165.3840 C.3     1  UNL1        0.0943
     14 C         139.9698  140.9958  166.8018 C.3     1  UNL1        0.0327
     15 C         140.0868  140.1612  169.5743 C.2     1  UNL1        0.3165
     16 O         138.9837  139.8790  170.5509 O.2     1  UNL1       -0.2501
     17 O         141.4978  140.3135  170.0600 O.3     1  UNL1       -0.4485
     18 C         143.0501  142.1929  169.1610 C.3     1  UNL1        0.0513
     19 C         142.0987  141.6807  170.2014 C.3     1  UNL1        0.2086
     20 C         141.2849  145.0976  159.9049 C.3     1  UNL1        0.0420
     21 C         140.8834  145.3058  158.4747 C.3     1  UNL1        0.0585
     22 C         141.4487  144.5856  157.2866 C.3     1  UNL1        0.0175
     23 C         140.7609  145.1053  156.0591 C.3     1  UNL1        0.0199
     24 C         139.7705  146.1468  156.4886 C.3     1  UNL1        0.0855
     25 N         139.8462  146.2707  157.9816 N.3     1  UNL1       -0.2971
     26 H         138.9407  146.0462  158.3939 H       1  UNL1        0.1233
     27 C         138.8636  146.9273  155.5840 C.3     1  UNL1        0.1470
     28 O         137.7179  146.2434  154.8987 O.3     1  UNL1       -0.3787
     29 H         137.2358  146.8863  154.3554 H       1  UNL1        0.2108
     30 C         139.1024  148.3919  155.3647 C.ar    1  UNL1        0.0055
     31 C         138.4762  149.3997  156.2824 C.ar    1  UNL1       -0.0019
     32 C         138.7151  150.8642  156.0630 C.ar    1  UNL1       -0.0002
     33 C         139.5802  151.3209  154.9260 C.ar    1  UNL1       -0.0000
     34 C         140.2065  150.3132  154.0083 C.ar    1  UNL1       -0.0002
     35 C         139.9676  148.8486  154.2277 C.ar    1  UNL1       -0.0019
@<TRIPOS>BOND
     1    18    19    1
     2    19    17    1
     3    17    15    1
     4    15    16    2
     5     7    15    1
     6     7     8    1
     7     8     9    1
     8     9    10    1
     9    10    11   am
    10    11    12    2
    11    11     1    1
    12     1     2   ar
    13     2     3   ar
    14     3     4   ar
    15     4    20    1
    16    21    20    1
    17    21    22    1
    18    22    23    1
    19    24    23    1
    20    24    27    1
    21    27    28    1
    22    27    30    1
    23    30    31   ar
    24    31    32   ar
    25    32    33   ar
    26    33    34   ar
    27    34    35   ar
    28    24    25    1
    29     4     5   ar
    30     5     6   ar
    31    10    13    1
    32    14    13    1
    33    14     7    1
    34    14     8    1
    35     6     1   ar
    36    25    21    1
    37    35    30   ar
    38    28    29    1
    39    25    26    1
@<TRIPOS>MOLECULE
*****
 35 39 0 0 0
SMALL
GASTEIGER

@<TRIPOS>ATOM
      1 C         137.9312  140.3564  161.7659 C.ar    1  UNL1        0.0536
      2 C         137.4901  141.3737  162.7760 C.ar    1  UNL1        0.0042
      3 C         137.6497  141.0942  164.2411 C.ar    1  UNL1       -0.0041
      4 C         138.2504  139.7973  164.6961 C.ar    1  UNL1       -0.0208
      5 C         138.6916  138.7799  163.6859 C.ar    1  UNL1       -0.0041
      6 C         138.5320  139.0594  162.2209 C.ar    1  UNL1        0.0042
      7 C         140.1970  144.5976  158.1780 C.3     1  UNL1        0.1025
      8 C         139.2823  143.4155  158.0521 C.3     1  UNL1        0.0327
      9 C         138.4208  142.2010  158.2335 C.3     1  UNL1        0.0943
     10 N         138.4840  141.7995  159.6774 N.am    1  UNL1       -0.2761
     11 C         137.7716  140.6359  160.3009 C.2     1  UNL1        0.2490
     12 O         136.8997  139.7519  159.4593 O.2     1  UNL1       -0.2699
     13 C         139.3845  142.7657  160.3884 C.3     1  UNL1        0.0943
     14 C         139.8779  143.7645  159.3839 C.3     1  UNL1        0.0327
     15 C         140.9093  145.7612  157.5545 C.2     1  UNL1        0.3165
     16 O         142.3042  146.1054  157.9860 O.2     1  UNL1       -0.2501
     17 O         140.2269  146.5806  156.4996 O.3     1  UNL1       -0.4485
     18 C         138.1503  145.7941  155.1509 C.3     1  UNL1        0.0513
     19 C         139.6390  145.9105  155.2932 C.3     1  UNL1        0.2086
     20 C         138.4100  139.5177  166.1611 C.3     1  UNL1        0.0420
     21 C         139.5582  140.1166  166.9182 C.3     1  UNL1        0.0585
     22 C         139.7353  140.1024  168.4076 C.3     1  UNL1        0.0175
     23 C         141.0173  140.8118  168.7287 C.3     1  UNL1        0.0199
     24 C         141.6326  141.2644  167.4377 C.3     1  UNL1        0.0855
     25 N         140.7307  140.8347  166.3188 N.3     1  UNL1       -0.2971
     26 H         141.2342  140.2100  165.6889 H       1  UNL1        0.1233
     27 C         142.9231  142.0149  167.2914 C.3     1  UNL1        0.1470
     28 O         143.5770  142.6243  168.4959 O.3     1  UNL1       -0.3787
     29 H         144.3963  143.0695  168.2285 H       1  UNL1        0.2108
     30 C         143.5596  142.1559  165.9405 C.ar    1  UNL1        0.0055
     31 C         143.7267  143.5151  165.3283 C.ar    1  UNL1       -0.0019
     32 C         144.3632  143.6560  163.9773 C.ar    1  UNL1       -0.0002
     33 C         144.8326  142.4378  163.2386 C.ar    1  UNL1       -0.0000
     34 C         144.6654  141.0787  163.8508 C.ar    1  UNL1       -0.0002
     35 C         144.0289  140.9378  165.2018 C.ar    1  UNL1       -0.0019
@<TRIPOS>BOND
     1    18    19    1
     2    19    17    1
     3    17    15    1
     4    15    16    2
     5     7    15    1
     6     7     8    1
     7     8     9    1
     8     9    10    1
     9    10    11   am
    10    11    12    2
    11    11     1    1
    12     1     2   ar
    13     2     3   ar
    14     3     4   ar
    15     4    20    1
    16    21    20    1
    17    21    22    1
    18    22    23    1
    19    24    23    1
    20    24    27    1
    21    27    28    1
    22    27    30    1
    23    30    31   ar
    24    31    32   ar
    25    32    33   ar
    26    33    34   ar
    27    34    35   ar
    28    24    25    1
    29     4     5   ar
    30     5     6   ar
    31    10    13    1
    32    14    13    1
    33    14     7    1
    34    14     8    1
    35     6     1   ar
    36    25    21    1
    37    35    30   ar
    38    28    29    1
    39    25    26    1
@<TRIPOS>MOLECULE
*****
 35 39 0 0 0
SMALL
GASTEIGER

@<TRIPOS>ATOM
      1 C         138.1812  139.2444  162.2919 C.ar    1  UNL1        0.0536
      2 C         137.8880  140.4852  163.0821 C.ar    1  UNL1        0.0042
      3 C         138.0193  140.4714  164.5763 C.ar    1  UNL1       -0.0041
      4 C         138.4439  139.2167  165.2803 C.ar    1  UNL1       -0.0208
      5 C         138.7371  137.9759  164.4900 C.ar    1  UNL1       -0.0041
      6 C         138.6057  137.9897  162.9959 C.ar    1  UNL1        0.0042
      7 C         142.1485  138.4269  157.8662 C.3     1  UNL1        0.1025
      8 C         140.6827  138.7168  157.9978 C.3     1  UNL1        0.0327
      9 C         139.2762  138.9975  158.4370 C.3     1  UNL1        0.0943
     10 N         139.2536  139.0141  159.9367 N.am    1  UNL1       -0.2761
     11 C         138.0499  139.2583  160.7978 C.2     1  UNL1        0.2490
     12 O         136.7148  139.5163  160.1646 O.2     1  UNL1       -0.2699
     13 C         140.6461  138.7436  160.4244 C.3     1  UNL1        0.0943
     14 C         141.5294  138.5599  159.2260 C.3     1  UNL1        0.0327
     15 C         143.3523  138.1827  157.0052 C.2     1  UNL1        0.3165
     16 O         144.2519  139.3238  156.6327 O.2     1  UNL1       -0.2501
     17 O         143.6565  136.7975  156.5167 O.3     1  UNL1       -0.4485
     18 C         142.0036  135.5470  154.9502 C.3     1  UNL1        0.0513
     19 C         142.5447  135.8091  156.3244 C.3     1  UNL1        0.2086
     20 C         138.5752  139.2029  166.7745 C.3     1  UNL1        0.0420
     21 C         139.6834  139.9664  167.4371 C.3     1  UNL1        0.0585
     22 C         139.8221  140.2199  168.9089 C.3     1  UNL1        0.0175
     23 C         141.0718  141.0205  169.1256 C.3     1  UNL1        0.0199
     24 C         141.7055  141.2619  167.7877 C.3     1  UNL1        0.0855
     25 N         140.8474  140.6104  166.7441 N.3     1  UNL1       -0.2971
     26 H         141.3869  139.9036  166.2442 H       1  UNL1        0.1233
     27 C         142.9746  142.0215  167.5374 C.3     1  UNL1        0.1470
     28 O         143.6732  142.7095  168.6724 O.3     1  UNL1       -0.3787
     29 H         144.4713  143.1503  168.3412 H       1  UNL1        0.2108
     30 C         143.5449  142.0929  166.1518 C.ar    1  UNL1        0.0055
     31 C         143.9341  143.4188  165.5683 C.ar    1  UNL1       -0.0019
     32 C         144.5044  143.4902  164.1828 C.ar    1  UNL1       -0.0002
     33 C         144.6855  142.2356  163.3808 C.ar    1  UNL1       -0.0000
     34 C         144.2963  140.9097  163.9643 C.ar    1  UNL1       -0.0002
     35 C         143.7260  140.8384  165.3498 C.ar    1  UNL1       -0.0019
@<TRIPOS>BOND
     1    18    19    1
     2    19    17    1
     3    17    15    1
     4    15    16    2
     5     7    15    1
     6     7     8    1
     7     8     9    1
     8     9    10    1
     9    10    11   am
    10    11    12    2
    11    11     1    1
    12     1     2   ar
    13     2     3   ar
    14     3     4   ar
    15     4    20    1
    16    21    20    1
    17    21    22    1
    18    22    23    1
    19    24    23    1
    20    24    27    1
    21    27    28    1
    22    27    30    1
    23    30    31   ar
    24    31    32   ar
    25    32    33   ar
    26    33    34   ar
    27    34    35   ar
    28    24    25    1
    29     4     5   ar
    30     5     6   ar
    31    10    13    1
    32    14    13    1
    33    14     7    1
    34    14     8    1
    35     6     1   ar
    36    25    21    1
    37    35    30   ar
    38    28    29    1
    39    25    26    1
@<TRIPOS>MOLECULE
*****
 35 39 0 0 0
SMALL
GASTEIGER

@<TRIPOS>ATOM
      1 C         142.9577  138.8734  159.9574 C.ar    1  UNL1        0.0536
      2 C         143.8342  140.0264  160.3475 C.ar    1  UNL1        0.0042
      3 C         144.2864  140.1772  161.7697 C.ar    1  UNL1       -0.0041
      4 C         143.8621  139.1750  162.8019 C.ar    1  UNL1       -0.0208
      5 C         142.9855  138.0219  162.4118 C.ar    1  UNL1       -0.0041
      6 C         142.5333  137.8711  160.9896 C.ar    1  UNL1        0.0042
      7 C         137.9880  140.6079  157.0784 C.3     1  UNL1        0.1025
      8 C         139.2589  139.8814  156.7513 C.3     1  UNL1        0.0327
      9 C         140.5961  139.2022  156.7271 C.3     1  UNL1        0.0943
     10 N         141.1786  139.2763  158.1073 N.am    1  UNL1       -0.2761
     11 C         142.5054  138.7225  158.5352 C.2     1  UNL1        0.2490
     12 O         143.3800  138.0180  157.5408 O.2     1  UNL1       -0.2699
     13 C         140.2016  140.0013  158.9846 C.3     1  UNL1        0.0943
     14 C         139.0151  140.3753  158.1466 C.3     1  UNL1        0.0327
     15 C         136.6612  141.1616  156.6505 C.2     1  UNL1        0.3165
     16 O         136.5851  142.5158  156.0097 O.2     1  UNL1       -0.2501
     17 O         135.4106  140.3612  156.8634 O.3     1  UNL1       -0.4485
     18 C         132.9076  140.4902  156.1792 C.3     1  UNL1        0.0513
     19 C         134.3506  140.3298  155.8025 C.3     1  UNL1        0.2086
     20 C         144.3143  139.3258  164.2241 C.3     1  UNL1        0.0420
     21 C         143.3467  139.7855  165.2741 C.3     1  UNL1        0.0585
     22 C         143.0716  139.1008  166.5799 C.3     1  UNL1        0.0175
     23 C         142.0392  139.9028  167.3154 C.3     1  UNL1        0.0199
     24 C         141.6762  141.0832  166.4641 C.3     1  UNL1        0.0855
     25 N         142.4843  141.0107  165.2024 N.3     1  UNL1       -0.2971
     26 H         143.0698  141.8417  165.1182 H       1  UNL1        0.1233
     27 C         140.6801  142.1490  166.8131 C.3     1  UNL1        0.1470
     28 O         140.6694  142.7437  168.1900 O.3     1  UNL1       -0.3787
     29 H         139.9695  143.4129  168.2478 H       1  UNL1        0.2108
     30 C         139.6945  142.6200  165.7850 C.ar    1  UNL1        0.0055
     31 C         139.5918  144.0803  165.4581 C.ar    1  UNL1       -0.0019
     32 C         138.6063  144.5512  164.4300 C.ar    1  UNL1       -0.0002
     33 C         137.7234  143.5618  163.7288 C.ar    1  UNL1       -0.0000
     34 C         137.8262  142.1015  164.0557 C.ar    1  UNL1       -0.0002
     35 C         138.8117  141.6305  165.0838 C.ar    1  UNL1       -0.0019
@<TRIPOS>BOND
     1    18    19    1
     2    19    17    1
     3    17    15    1
     4    15    16    2
     5     7    15    1
     6     7     8    1
     7     8     9    1
     8     9    10    1
     9    10    11   am
    10    11    12    2
    11    11     1    1
    12     1     2   ar
    13     2     3   ar
    14     3     4   ar
    15     4    20    1
    16    21    20    1
    17    21    22    1
    18    22    23    1
    19    24    23    1
    20    24    27    1
    21    27    28    1
    22    27    30    1
    23    30    31   ar
    24    31    32   ar
    25    32    33   ar
    26    33    34   ar
    27    34    35   ar
    28    24    25    1
    29     4     5   ar
    30     5     6   ar
    31    10    13    1
    32    14    13    1
    33    14     7    1
    34    14     8    1
    35     6     1   ar
    36    25    21    1
    37    35    30   ar
    38    28    29    1
    39    25    26    1
@<TRIPOS>MOLECULE
*****
 35 39 0 0 0
SMALL
GASTEIGER

@<TRIPOS>ATOM
      1 C         138.7178  141.2360  159.1939 C.ar    1  UNL1        0.0536
      2 C         139.3807  142.5605  158.9569 C.ar    1  UNL1        0.0042
      3 C         139.5735  143.5172  160.0960 C.ar    1  UNL1       -0.0041
      4 C         139.1034  143.1494  161.4721 C.ar    1  UNL1       -0.0208
      5 C         138.4405  141.8248  161.7091 C.ar    1  UNL1       -0.0041
      6 C         138.2477  140.8681  160.5701 C.ar    1  UNL1        0.0042
      7 C         142.1463  136.8478  156.9613 C.3     1  UNL1        0.1025
      8 C         140.8069  137.4592  156.6745 C.3     1  UNL1        0.0327
      9 C         139.5368  138.2560  156.6308 C.3     1  UNL1        0.0943
     10 N         139.5886  139.2714  157.7337 N.am    1  UNL1       -0.2761
     11 C         138.5250  140.2793  158.0549 C.2     1  UNL1        0.2490
     12 O         137.2687  140.3303  157.2370 O.2     1  UNL1       -0.2699
     13 C         140.8906  139.1021  158.4590 C.3     1  UNL1        0.0943
     14 C         141.6436  137.9820  157.8044 C.3     1  UNL1        0.0327
     15 C         143.2098  135.8400  156.6401 C.2     1  UNL1        0.3165
     16 O         144.3754  136.2280  155.7792 O.2     1  UNL1       -0.2501
     17 O         143.1079  134.4441  157.1797 O.3     1  UNL1       -0.4485
     18 C         141.4946  133.5651  155.3427 C.3     1  UNL1        0.0513
     19 C         142.6297  133.3311  156.2951 C.3     1  UNL1        0.2086
     20 C         139.2962  144.1062  162.6112 C.3     1  UNL1        0.0420
     21 C         140.6437  144.2429  163.2559 C.3     1  UNL1        0.0585
     22 C         141.5398  145.4433  163.1797 C.3     1  UNL1        0.0175
     23 C         142.7815  145.1455  163.9667 C.3     1  UNL1        0.0199
     24 C         142.6528  143.7610  164.5294 C.3     1  UNL1        0.0855
     25 N         141.3315  143.2031  164.0901 N.3     1  UNL1       -0.2971
     26 H         140.7611  142.9809  164.9060 H       1  UNL1        0.1233
     27 C         143.6673  143.0579  165.3817 C.3     1  UNL1        0.1470
     28 O         144.7887  143.8335  166.0068 O.3     1  UNL1       -0.3787
     29 H         145.3498  143.2325  166.5216 H       1  UNL1        0.2108
     30 C         143.5603  141.5790  165.6088 C.ar    1  UNL1        0.0055
     31 C         144.2163  140.6244  164.6557 C.ar    1  UNL1       -0.0019
     32 C         144.1092  139.1455  164.8829 C.ar    1  UNL1       -0.0002
     33 C         143.3462  138.6213  166.0631 C.ar    1  UNL1       -0.0000
     34 C         142.6902  139.5759  167.0162 C.ar    1  UNL1       -0.0002
     35 C         142.7973  141.0548  166.7890 C.ar    1  UNL1       -0.0019
@<TRIPOS>BOND
     1    18    19    1
     2    19    17    1
     3    17    15    1
     4    15    16    2
     5     7    15    1
     6     7     8    1
     7     8     9    1
     8     9    10    1
     9    10    11   am
    10    11    12    2
    11    11     1    1
    12     1     2   ar
    13     2     3   ar
    14     3     4   ar
    15     4    20    1
    16    21    20    1
    17    21    22    1
    18    22    23    1
    19    24    23    1
    20    24    27    1
    21    27    28    1
    22    27    30    1
    23    30    31   ar
    24    31    32   ar
    25    32    33   ar
    26    33    34   ar
    27    34    35   ar
    28    24    25    1
    29     4     5   ar
    30     5     6   ar
    31    10    13    1
    32    14    13    1
    33    14     7    1
    34    14     8    1
    35     6     1   ar
    36    25    21    1
    37    35    30   ar
    38    28    29    1
    39    25    26    1
@<TRIPOS>MOLECULE
*****
 35 39 0 0 0
SMALL
GASTEIGER

@<TRIPOS>ATOM
      1 C         141.1788  138.3309  159.2876 C.ar    1  UNL1        0.0536
      2 C         142.0425  137.9398  160.4499 C.ar    1  UNL1        0.0042
      3 C         141.4388  137.7846  161.8142 C.ar    1  UNL1       -0.0041
      4 C         139.9713  138.0205  162.0163 C.ar    1  UNL1       -0.0208
      5 C         139.1075  138.4116  160.8539 C.ar    1  UNL1       -0.0041
      6 C         139.7113  138.5669  159.4895 C.ar    1  UNL1        0.0042
      7 C         145.6286  141.7657  157.1908 C.3     1  UNL1        0.1025
      8 C         144.6728  140.7432  156.6515 C.3     1  UNL1        0.0327
      9 C         143.6124  139.7107  156.4076 C.3     1  UNL1        0.0943
     10 N         142.9121  139.4494  157.7081 N.am    1  UNL1       -0.2761
     11 C         141.7825  138.4862  157.9232 C.2     1  UNL1        0.2490
     12 O         141.2567  137.6782  156.7740 O.2     1  UNL1       -0.2699
     13 C         143.5397  140.3204  158.7557 C.3     1  UNL1        0.0943
     14 C         144.6279  141.1200  158.1027 C.3     1  UNL1        0.0327
     15 C         146.7582  142.7289  156.9756 C.2     1  UNL1        0.3165
     16 O         147.5127  143.2748  158.1516 O.2     1  UNL1       -0.2501
     17 O         147.1333  143.1463  155.5846 O.3     1  UNL1       -0.4485
     18 C         149.2580  141.6562  155.4627 C.3     1  UNL1        0.0513
     19 C         148.0934  142.3157  154.7856 C.3     1  UNL1        0.2086
     20 C         139.3675  137.8652  163.3806 C.3     1  UNL1        0.0420
     21 C         139.6474  138.8844  164.4449 C.3     1  UNL1        0.0585
     22 C         140.2255  140.2512  164.2266 C.3     1  UNL1        0.0175
     23 C         140.3336  140.9273  165.5612 C.3     1  UNL1        0.0199
     24 C         139.8223  139.9785  166.6043 C.3     1  UNL1        0.0855
     25 N         139.3982  138.7159  165.9144 N.3     1  UNL1       -0.2971
     26 H         138.4059  138.5474  166.0802 H       1  UNL1        0.1233
     27 C         139.7482  140.2454  168.0785 C.3     1  UNL1        0.1470
     28 O         138.6479  139.6369  168.8965 O.3     1  UNL1       -0.3787
     29 H         138.7459  139.9078  169.8227 H       1  UNL1        0.2108
     30 C         140.7744  141.1208  168.7347 C.ar    1  UNL1        0.0055
     31 C         140.3895  142.4809  169.2368 C.ar    1  UNL1       -0.0019
     32 C         141.4158  143.3562  169.8930 C.ar    1  UNL1       -0.0002
     33 C         142.8269  142.8715  170.0471 C.ar    1  UNL1       -0.0000
     34 C         143.2118  141.5114  169.5451 C.ar    1  UNL1       -0.0002
     35 C         142.1855  140.6361  168.8889 C.ar    1  UNL1       -0.0019
@<TRIPOS>BOND
     1    18    19    1
     2    19    17    1
     3    17    15    1
     4    15    16    2
     5     7    15    1
     6     7     8    1
     7     8     9    1
     8     9    10    1
     9    10    11   am
    10    11    12    2
    11    11     1    1
    12     1     2   ar
    13     2     3   ar
    14     3     4   ar
    15     4    20    1
    16    21    20    1
    17    21    22    1
    18    22    23    1
    19    24    23    1
    20    24    27    1
    21    27    28    1
    22    27    30    1
    23    30    31   ar
    24    31    32   ar
    25    32    33   ar
    26    33    34   ar
    27    34    35   ar
    28    24    25    1
    29     4     5   ar
    30     5     6   ar
    31    10    13    1
    32    14    13    1
    33    14     7    1
    34    14     8    1
    35     6     1   ar
    36    25    21    1
    37    35    30   ar
    38    28    29    1
    39    25    26    1
@<TRIPOS>MOLECULE
*****
 35 39 0 0 0
SMALL
GASTEIGER

@<TRIPOS>ATOM
      1 C         138.2978  140.4711  159.5669 C.ar    1  UNL1        0.0536
      2 C         137.9940  139.3758  160.5457 C.ar    1  UNL1        0.0042
      3 C         137.8327  139.6951  162.0024 C.ar    1  UNL1       -0.0041
      4 C         137.9753  141.1097  162.4804 C.ar    1  UNL1       -0.0208
      5 C         138.2791  142.2051  161.5016 C.ar    1  UNL1       -0.0041
      6 C         138.4404  141.8858  160.0449 C.ar    1  UNL1        0.0042
      7 C         142.6402  137.7152  156.4777 C.3     1  UNL1        0.1025
      8 C         141.3153  138.3572  156.1903 C.3     1  UNL1        0.0327
      9 C         139.9859  139.0516  156.2120 C.3     1  UNL1        0.0943
     10 N         139.6870  139.4362  157.6307 N.am    1  UNL1       -0.2761
     11 C         138.4591  140.1518  158.1102 C.2     1  UNL1        0.2490
     12 O         137.3923  140.5482  157.1330 O.2     1  UNL1       -0.2699
     13 C         140.8317  138.9795  158.4858 C.3     1  UNL1        0.0943
     14 C         141.8381  138.3127  157.5955 C.3     1  UNL1        0.0327
     15 C         143.8681  136.9995  155.9982 C.2     1  UNL1        0.3165
     16 O         145.0146  137.7788  155.4250 O.2     1  UNL1       -0.2501
     17 O         143.9497  135.5047  156.0918 O.3     1  UNL1       -0.4485
     18 C         142.4740  134.8806  154.0466 C.3     1  UNL1        0.0513
     19 C         142.8795  134.6550  155.4730 C.3     1  UNL1        0.2086
     20 C         137.8140  141.4290  163.9371 C.3     1  UNL1        0.0420
     21 C         138.7618  140.8449  164.9423 C.3     1  UNL1        0.0585
     22 C         138.4043  139.8821  166.0356 C.3     1  UNL1        0.0175
     23 C         139.6550  139.5631  166.7997 C.3     1  UNL1        0.0199
     24 C         140.7855  140.3288  166.1788 C.3     1  UNL1        0.0855
     25 N         140.2335  141.1210  165.0308 N.3     1  UNL1       -0.2971
     26 H         140.6913  140.8393  164.1640 H       1  UNL1        0.1233
     27 C         142.2168  140.3063  166.6270 C.3     1  UNL1        0.1470
     28 O         142.5717  139.7550  167.9761 O.3     1  UNL1       -0.3787
     29 H         143.5309  139.8144  168.1075 H       1  UNL1        0.2108
     30 C         143.2932  140.8352  165.7261 C.ar    1  UNL1        0.0055
     31 C         143.5653  142.3091  165.6675 C.ar    1  UNL1       -0.0019
     32 C         144.6418  142.8379  164.7666 C.ar    1  UNL1       -0.0002
     33 C         145.4461  141.8927  163.9242 C.ar    1  UNL1       -0.0000
     34 C         145.1740  140.4187  163.9827 C.ar    1  UNL1       -0.0002
     35 C         144.0976  139.8900  164.8837 C.ar    1  UNL1       -0.0019
@<TRIPOS>BOND
     1    18    19    1
     2    19    17    1
     3    17    15    1
     4    15    16    2
     5     7    15    1
     6     7     8    1
     7     8     9    1
     8     9    10    1
     9    10    11   am
    10    11    12    2
    11    11     1    1
    12     1     2   ar
    13     2     3   ar
    14     3     4   ar
    15     4    20    1
    16    21    20    1
    17    21    22    1
    18    22    23    1
    19    24    23    1
    20    24    27    1
    21    27    28    1
    22    27    30    1
    23    30    31   ar
    24    31    32   ar
    25    32    33   ar
    26    33    34   ar
    27    34    35   ar
    28    24    25    1
    29     4     5   ar
    30     5     6   ar
    31    10    13    1
    32    14    13    1
    33    14     7    1
    34    14     8    1
    35     6     1   ar
    36    25    21    1
    37    35    30   ar
    38    28    29    1
    39    25    26    1
