@<TRIPOS>MOLECULE
*****
 34 37 0 0 0
SMALL
GASTEIGER

@<TRIPOS>ATOM
      1 C         140.8182  138.2856  160.9660 C.ar    1  UNL1        0.0729
      2 C         139.3887  138.4606  160.5468 C.ar    1  UNL1        0.1048
      3 N         139.0398  138.5502  159.0907 N.ar    1  UNL1       -0.2290
      4 C         140.1204  138.4649  158.0539 C.ar    1  UNL1        0.1318
      5 C         141.5499  138.2899  158.4731 C.ar    1  UNL1        0.0348
      6 C         141.8988  138.2002  159.9292 C.ar    1  UNL1        0.0090
      7 N         139.7715  138.5546  156.5977 N.pl3   1  UNL1       -0.2907
      8 C         139.7759  139.8024  155.7653 C.3     1  UNL1        0.0948
      9 C         139.3640  139.4312  154.3715 C.3     1  UNL1        0.0524
     10 C         139.1051  137.9540  154.3426 C.3     1  UNL1        0.1319
     11 O         138.6706  137.1583  153.1476 O.3     1  UNL1       -0.3827
     12 C         139.3569  137.4122  155.7185 C.3     1  UNL1        0.1213
     13 H         138.5796  137.7475  152.3824 H       1  UNL1        0.2104
     14 C         142.6306  138.2045  157.4363 C.ar    1  UNL1        0.0411
     15 C         143.3462  139.4467  156.9949 C.ar    1  UNL1        0.1023
     16 N         144.4268  139.3613  155.9581 N.ar    1  UNL1       -0.2224
     17 C         144.7918  138.0338  155.3627 C.ar    1  UNL1        0.1989
     18 N         144.0762  136.7917  155.8042 N.ar    1  UNL1       -0.2224
     19 C         142.9955  136.8770  156.8410 C.ar    1  UNL1        0.1023
     20 O         140.9917  136.9000  163.1570 O.2     1  UNL1       -0.2698
     21 C         141.1671  138.1959  162.4222 C.2     1  UNL1        0.2510
     22 N         141.6915  139.4020  163.1434 N.am    1  UNL1       -0.2803
     23 H         141.8067  140.2525  162.6611 H       1  UNL1        0.1552
     24 C         142.0405  139.3123  164.5995 C.ar    1  UNL1        0.0507
     25 C         141.1295  139.9149  165.6276 C.ar    1  UNL1        0.0178
     26 C         141.4784  139.8252  167.0836 C.ar    1  UNL1        0.0385
     27 C         142.7384  139.1330  167.5116 C.ar    1  UNL1        0.1469
     28 C         143.6494  138.5304  166.4836 C.ar    1  UNL1        0.0385
     29 C         143.3005  138.6201  165.0276 C.ar    1  UNL1        0.0178
     30 O         143.0874  139.0433  168.9678 O.3     1  UNL1       -0.4045
     31 C         142.4743  140.0007  169.9463 C.3     1  UNL1        0.5753
     32 F         141.8613  140.9582  170.9248 F       1  UNL1       -0.1328
     33 F         143.5121  141.0250  169.5942 F       1  UNL1       -0.1328
     34 F         141.4366  138.9765  170.2983 F       1  UNL1       -0.1328
@<TRIPOS>BOND
     1    20    21    2
     2    21    22   am
     3    22    24    1
     4    24    25   ar
     5    25    26   ar
     6    26    27   ar
     7    27    30    1
     8    30    31    1
     9    31    32    1
    10    31    33    1
    11    31    34    1
    12    27    28   ar
    13    28    29   ar
    14    21     1    1
    15     1     2   ar
    16     2     3   ar
    17     3     4   ar
    18     4     7    1
    19     7     8    1
    20     8     9    1
    21     9    10    1
    22    10    11    1
    23    10    12    1
    24     4     5   ar
    25     5    14    1
    26    14    15   ar
    27    15    16   ar
    28    16    17   ar
    29    17    18   ar
    30    18    19   ar
    31     5     6   ar
    32    29    24   ar
    33     6     1   ar
    34    12     7    1
    35    19    14   ar
    36    22    23    1
    37    11    13    1
@<TRIPOS>MOLECULE
*****
 34 37 0 0 0
SMALL
GASTEIGER

@<TRIPOS>ATOM
      1 C         142.4672  142.9233  164.0196 C.ar    1  UNL1        0.0729
      2 C         143.5379  143.2237  165.0261 C.ar    1  UNL1        0.1048
      3 N         143.5350  142.5275  166.3547 N.ar    1  UNL1       -0.2290
      4 C         142.4612  141.5308  166.6767 C.ar    1  UNL1        0.1318
      5 C         141.3904  141.2304  165.6702 C.ar    1  UNL1        0.0348
      6 C         141.3934  141.9266  164.3416 C.ar    1  UNL1        0.0090
      7 N         142.4583  140.8346  168.0054 N.pl3   1  UNL1       -0.2907
      8 C         142.6753  139.3678  168.2327 C.3     1  UNL1        0.0948
      9 C         142.5889  139.1096  169.7078 C.3     1  UNL1        0.0524
     10 C         142.3186  140.4167  170.3921 C.3     1  UNL1        0.1319
     11 O         142.1573  140.6218  171.8693 O.3     1  UNL1       -0.3827
     12 C         142.2379  141.4828  169.3400 C.3     1  UNL1        0.1213
     13 H         142.2549  139.7717  172.3263 H       1  UNL1        0.2104
     14 C         140.3167  140.2337  165.9923 C.ar    1  UNL1        0.0411
     15 C         140.0304  139.1071  165.0443 C.ar    1  UNL1        0.1023
     16 N         138.9566  138.1104  165.3664 N.ar    1  UNL1       -0.2224
     17 C         138.1692  138.2404  166.6364 C.ar    1  UNL1        0.1989
     18 N         138.4555  139.3670  167.5844 N.ar    1  UNL1       -0.2224
     19 C         139.5293  140.3637  167.2623 C.ar    1  UNL1        0.1023
     20 O         143.4555  144.7180  162.4220 O.2     1  UNL1       -0.2698
     21 C         142.4701  143.6195  162.6909 C.2     1  UNL1        0.2510
     22 N         141.4877  143.2173  161.6312 N.am    1  UNL1       -0.2803
     23 H         140.8409  142.4963  161.8077 H       1  UNL1        0.1552
     24 C         141.4906  143.9135  160.3025 C.ar    1  UNL1        0.0507
     25 C         140.4410  144.9386  159.9906 C.ar    1  UNL1        0.0178
     26 C         140.4439  145.6348  158.6620 C.ar    1  UNL1        0.0385
     27 C         141.4966  145.3059  157.6453 C.ar    1  UNL1        0.1469
     28 C         142.5462  144.2807  157.9571 C.ar    1  UNL1        0.0385
     29 C         142.5432  143.5846  159.2858 C.ar    1  UNL1        0.0178
     30 O         141.4995  146.0021  156.3166 O.3     1  UNL1       -0.4045
     31 C         140.2763  145.9677  155.4491 C.3     1  UNL1        0.5753
     32 F         139.0530  145.9334  154.5817 F       1  UNL1       -0.1328
     33 F         140.2865  147.4659  155.3754 F       1  UNL1       -0.1328
     34 F         140.2661  144.4696  155.5229 F       1  UNL1       -0.1328
@<TRIPOS>BOND
     1    20    21    2
     2    21    22   am
     3    22    24    1
     4    24    25   ar
     5    25    26   ar
     6    26    27   ar
     7    27    30    1
     8    30    31    1
     9    31    32    1
    10    31    33    1
    11    31    34    1
    12    27    28   ar
    13    28    29   ar
    14    21     1    1
    15     1     2   ar
    16     2     3   ar
    17     3     4   ar
    18     4     7    1
    19     7     8    1
    20     8     9    1
    21     9    10    1
    22    10    11    1
    23    10    12    1
    24     4     5   ar
    25     5    14    1
    26    14    15   ar
    27    15    16   ar
    28    16    17   ar
    29    17    18   ar
    30    18    19   ar
    31     5     6   ar
    32    29    24   ar
    33     6     1   ar
    34    12     7    1
    35    19    14   ar
    36    22    23    1
    37    11    13    1
@<TRIPOS>MOLECULE
*****
 34 37 0 0 0
SMALL
GASTEIGER

@<TRIPOS>ATOM
      1 C         142.4308  143.2586  159.7175 C.ar    1  UNL1        0.0729
      2 C         141.1495  144.0113  159.5133 C.ar    1  UNL1        0.1048
      3 N         140.1962  144.1933  160.6570 N.ar    1  UNL1       -0.2290
      4 C         140.5242  143.6226  162.0048 C.ar    1  UNL1        0.1318
      5 C         141.8055  142.8699  162.2090 C.ar    1  UNL1        0.0348
      6 C         142.7587  142.6879  161.0653 C.ar    1  UNL1        0.0090
      7 N         139.5708  143.8047  163.1486 N.pl3   1  UNL1       -0.2907
      8 C         138.3879  142.9355  163.4572 C.3     1  UNL1        0.0948
      9 C         137.7190  143.4814  164.6838 C.3     1  UNL1        0.0524
     10 C         138.4885  144.6881  165.1332 C.3     1  UNL1        0.1319
     11 O         138.1695  145.5446  166.3226 O.3     1  UNL1       -0.3827
     12 C         139.6330  144.8878  164.1843 C.3     1  UNL1        0.1213
     13 H         137.3796  145.1993  166.7671 H       1  UNL1        0.2104
     14 C         142.1334  142.2992  163.5569 C.ar    1  UNL1        0.0411
     15 C         142.9620  143.0906  164.5250 C.ar    1  UNL1        0.1023
     16 N         143.2900  142.5199  165.8728 N.ar    1  UNL1       -0.2224
     17 C         142.7894  141.1579  166.2526 C.ar    1  UNL1        0.1989
     18 N         141.9609  140.3665  165.2845 N.ar    1  UNL1       -0.2224
     19 C         141.6329  140.9372  163.9366 C.ar    1  UNL1        0.1023
     20 O         143.0915  143.7092  157.2455 O.2     1  UNL1       -0.2698
     21 C         143.3841  143.0766  158.5737 C.2     1  UNL1        0.2510
     22 N         144.6300  142.2619  158.7583 N.am    1  UNL1       -0.2803
     23 H         144.8220  141.8467  159.6300 H       1  UNL1        0.1552
     24 C         145.5834  142.0799  157.6145 C.ar    1  UNL1        0.0507
     25 C         146.8574  142.8702  157.5670 C.ar    1  UNL1        0.0178
     26 C         147.8106  142.6882  156.4234 C.ar    1  UNL1        0.0385
     27 C         147.4900  141.7158  155.3272 C.ar    1  UNL1        0.1469
     28 C         146.2160  140.9254  155.3747 C.ar    1  UNL1        0.0385
     29 C         145.2627  141.1075  156.5184 C.ar    1  UNL1        0.0178
     30 O         148.4433  141.5337  154.1835 O.3     1  UNL1       -0.4045
     31 C         149.7900  142.1935  154.2173 C.3     1  UNL1        0.5753
     32 F         151.1367  142.8533  154.2512 F       1  UNL1       -0.1328
     33 F         150.3430  141.0257  154.9791 F       1  UNL1       -0.1328
     34 F         149.2369  143.3613  153.4555 F       1  UNL1       -0.1328
@<TRIPOS>BOND
     1    20    21    2
     2    21    22   am
     3    22    24    1
     4    24    25   ar
     5    25    26   ar
     6    26    27   ar
     7    27    30    1
     8    30    31    1
     9    31    32    1
    10    31    33    1
    11    31    34    1
    12    27    28   ar
    13    28    29   ar
    14    21     1    1
    15     1     2   ar
    16     2     3   ar
    17     3     4   ar
    18     4     7    1
    19     7     8    1
    20     8     9    1
    21     9    10    1
    22    10    11    1
    23    10    12    1
    24     4     5   ar
    25     5    14    1
    26    14    15   ar
    27    15    16   ar
    28    16    17   ar
    29    17    18   ar
    30    18    19   ar
    31     5     6   ar
    32    29    24   ar
    33     6     1   ar
    34    12     7    1
    35    19    14   ar
    36    22    23    1
    37    11    13    1
@<TRIPOS>MOLECULE
*****
 34 37 0 0 0
SMALL
GASTEIGER

@<TRIPOS>ATOM
      1 C         139.9381  142.7387  163.6215 C.ar    1  UNL1        0.0729
      2 C         140.8791  143.4330  164.5608 C.ar    1  UNL1        0.1048
      3 N         141.1803  142.8313  165.9014 N.ar    1  UNL1       -0.2290
      4 C         140.5404  141.5353  166.3026 C.ar    1  UNL1        0.1318
      5 C         139.5994  140.8410  165.3633 C.ar    1  UNL1        0.0348
      6 C         139.2983  141.4428  164.0227 C.ar    1  UNL1        0.0090
      7 N         140.8416  140.9336  167.6433 N.pl3   1  UNL1       -0.2907
      8 C         141.8783  139.8874  167.9273 C.3     1  UNL1        0.0948
      9 C         141.8364  139.5796  169.3948 C.3     1  UNL1        0.0524
     10 C         140.7738  140.4357  170.0177 C.3     1  UNL1        0.1319
     11 O         140.3928  140.4520  171.4685 O.3     1  UNL1       -0.3827
     12 C         140.1590  141.2724  168.9352 C.3     1  UNL1        0.1213
     13 H         140.9428  139.8177  171.9543 H       1  UNL1        0.2104
     14 C         138.9595  139.5450  165.7645 C.ar    1  UNL1        0.0411
     15 C         139.3480  138.2714  165.0739 C.ar    1  UNL1        0.1023
     16 N         138.7081  136.9754  165.4751 N.ar    1  UNL1       -0.2224
     17 C         137.6798  136.9531  166.5669 C.ar    1  UNL1        0.1989
     18 N         137.2913  138.2267  167.2575 N.ar    1  UNL1       -0.2224
     19 C         137.9312  139.5227  166.8562 C.ar    1  UNL1        0.1023
     20 O         138.4270  144.2091  162.1033 O.2     1  UNL1       -0.2698
     21 C         139.6370  143.3405  162.2808 C.2     1  UNL1        0.2510
     22 N         140.5457  143.0736  161.1177 N.am    1  UNL1       -0.2803
     23 H         141.3399  142.5035  161.2342 H       1  UNL1        0.1552
     24 C         140.2445  143.6753  159.7770 C.ar    1  UNL1        0.0507
     25 C         140.6784  145.0779  159.4699 C.ar    1  UNL1        0.0178
     26 C         140.3772  145.6796  158.1293 C.ar    1  UNL1        0.0385
     27 C         139.6422  144.8786  157.0958 C.ar    1  UNL1        0.1469
     28 C         139.2083  143.4759  157.4029 C.ar    1  UNL1        0.0385
     29 C         139.5095  142.8743  158.7435 C.ar    1  UNL1        0.0178
     30 O         139.3410  145.4803  155.7552 O.3     1  UNL1       -0.4045
     31 C         139.8790  146.8355  155.4034 C.3     1  UNL1        0.5753
     32 F         140.4171  148.1908  155.0516 F       1  UNL1       -0.1328
     33 F         141.1731  146.2104  154.9742 F       1  UNL1       -0.1328
     34 F         138.5848  147.4607  155.8326 F       1  UNL1       -0.1328
@<TRIPOS>BOND
     1    20    21    2
     2    21    22   am
     3    22    24    1
     4    24    25   ar
     5    25    26   ar
     6    26    27   ar
     7    27    30    1
     8    30    31    1
     9    31    32    1
    10    31    33    1
    11    31    34    1
    12    27    28   ar
    13    28    29   ar
    14    21     1    1
    15     1     2   ar
    16     2     3   ar
    17     3     4   ar
    18     4     7    1
    19     7     8    1
    20     8     9    1
    21     9    10    1
    22    10    11    1
    23    10    12    1
    24     4     5   ar
    25     5    14    1
    26    14    15   ar
    27    15    16   ar
    28    16    17   ar
    29    17    18   ar
    30    18    19   ar
    31     5     6   ar
    32    29    24   ar
    33     6     1   ar
    34    12     7    1
    35    19    14   ar
    36    22    23    1
    37    11    13    1
@<TRIPOS>MOLECULE
*****
 34 37 0 0 0
SMALL
GASTEIGER

@<TRIPOS>ATOM
      1 C         141.1045  144.4923  161.5967 C.ar    1  UNL1        0.0729
      2 C         140.2222  145.6261  161.1657 C.ar    1  UNL1        0.1048
      3 N         139.9605  145.8602  159.7074 N.ar    1  UNL1       -0.2290
      4 C         140.5811  144.9603  158.6802 C.ar    1  UNL1        0.1318
      5 C         141.4634  143.8265  159.1112 C.ar    1  UNL1        0.0348
      6 C         141.7251  143.5924  160.5695 C.ar    1  UNL1        0.0090
      7 N         140.3193  145.1944  157.2218 N.pl3   1  UNL1       -0.2907
      8 C         141.1018  146.1027  156.3203 C.3     1  UNL1        0.0948
      9 C         140.4952  146.0310  154.9502 C.3     1  UNL1        0.0524
     10 C         139.3378  145.0784  155.0051 C.3     1  UNL1        0.1319
     11 O         138.4458  144.7078  153.8575 O.3     1  UNL1       -0.3827
     12 C         139.2291  144.5614  156.4090 C.3     1  UNL1        0.1213
     13 H         138.7305  145.1817  153.0605 H       1  UNL1        0.2104
     14 C         142.0839  142.9266  158.0840 C.ar    1  UNL1        0.0411
     15 C         143.4312  143.2570  157.5134 C.ar    1  UNL1        0.1023
     16 N         144.0518  142.3571  156.4861 N.ar    1  UNL1       -0.2224
     17 C         143.3250  141.1270  156.0295 C.ar    1  UNL1        0.1989
     18 N         141.9777  140.7967  156.6001 N.ar    1  UNL1       -0.2224
     19 C         141.3572  141.6965  157.6273 C.ar    1  UNL1        0.1023
     20 O         141.8641  145.3802  163.9173 O.2     1  UNL1       -0.2698
     21 C         141.3663  144.2582  163.0551 C.2     1  UNL1        0.2510
     22 N         141.1303  142.9022  163.6513 N.am    1  UNL1       -0.2803
     23 H         140.8035  142.1658  163.0854 H       1  UNL1        0.1552
     24 C         141.3920  142.6681  165.1096 C.ar    1  UNL1        0.0507
     25 C         140.2639  142.7417  166.0954 C.ar    1  UNL1        0.0178
     26 C         140.5257  142.5076  167.5537 C.ar    1  UNL1        0.0385
     27 C         141.9157  142.1999  168.0262 C.ar    1  UNL1        0.1469
     28 C         143.0438  142.1263  167.0404 C.ar    1  UNL1        0.0385
     29 C         142.7820  142.3603  165.5821 C.ar    1  UNL1        0.0178
     30 O         142.1774  141.9658  169.4845 O.3     1  UNL1       -0.4045
     31 C         142.9605  142.9705  170.2767 C.3     1  UNL1        0.5753
     32 F         143.7436  143.9751  171.0688 F       1  UNL1       -0.1328
     33 F         144.1614  142.0732  170.2275 F       1  UNL1       -0.1328
     34 F         141.7595  143.8677  170.3258 F       1  UNL1       -0.1328
@<TRIPOS>BOND
     1    20    21    2
     2    21    22   am
     3    22    24    1
     4    24    25   ar
     5    25    26   ar
     6    26    27   ar
     7    27    30    1
     8    30    31    1
     9    31    32    1
    10    31    33    1
    11    31    34    1
    12    27    28   ar
    13    28    29   ar
    14    21     1    1
    15     1     2   ar
    16     2     3   ar
    17     3     4   ar
    18     4     7    1
    19     7     8    1
    20     8     9    1
    21     9    10    1
    22    10    11    1
    23    10    12    1
    24     4     5   ar
    25     5    14    1
    26    14    15   ar
    27    15    16   ar
    28    16    17   ar
    29    17    18   ar
    30    18    19   ar
    31     5     6   ar
    32    29    24   ar
    33     6     1   ar
    34    12     7    1
    35    19    14   ar
    36    22    23    1
    37    11    13    1
@<TRIPOS>MOLECULE
*****
 34 37 0 0 0
SMALL
GASTEIGER

@<TRIPOS>ATOM
      1 C         141.6890  138.2221  161.6182 C.ar    1  UNL1        0.0729
      2 C         143.0678  137.7390  161.2784 C.ar    1  UNL1        0.1048
      3 N         143.5017  137.6570  159.8449 N.ar    1  UNL1       -0.2290
      4 C         142.5567  138.0582  158.7512 C.ar    1  UNL1        0.1318
      5 C         141.1780  138.5413  159.0910 C.ar    1  UNL1        0.0348
      6 C         140.7441  138.6233  160.5245 C.ar    1  UNL1        0.0090
      7 N         142.9907  137.9762  157.3176 N.pl3   1  UNL1       -0.2907
      8 C         143.0677  136.7277  156.4898 C.3     1  UNL1        0.0948
      9 C         143.5484  137.1081  155.1208 C.3     1  UNL1        0.0524
     10 C         143.7684  138.5919  155.1026 C.3     1  UNL1        0.1319
     11 O         144.2488  139.3976  153.9320 O.3     1  UNL1       -0.3827
     12 C         143.4237  139.1283  156.4603 C.3     1  UNL1        0.1213
     13 H         144.3993  138.8101  153.1750 H       1  UNL1        0.2104
     14 C         140.2330  138.9425  157.9973 C.ar    1  UNL1        0.0411
     15 C         139.6217  137.8963  157.1132 C.ar    1  UNL1        0.1023
     16 N         138.6767  138.2975  156.0195 N.ar    1  UNL1       -0.2224
     17 C         138.3432  139.7448  155.8099 C.ar    1  UNL1        0.1989
     18 N         138.9546  140.7909  156.6940 N.ar    1  UNL1       -0.2224
     19 C         139.8995  140.3898  157.7877 C.ar    1  UNL1        0.1023
     20 O         141.5183  137.1570  163.9818 O.2     1  UNL1       -0.2698
     21 C         141.2551  138.3041  163.0518 C.2     1  UNL1        0.2510
     22 N         140.5581  139.5331  163.5553 N.am    1  UNL1       -0.2803
     23 H         140.3853  140.2860  162.9449 H       1  UNL1        0.1552
     24 C         140.1241  139.6151  164.9889 C.ar    1  UNL1        0.0507
     25 C         138.8209  139.0062  165.4140 C.ar    1  UNL1        0.0178
     26 C         138.3870  139.0882  166.8475 C.ar    1  UNL1        0.0385
     27 C         139.2564  139.7791  167.8559 C.ar    1  UNL1        0.1469
     28 C         140.5597  140.3879  167.4308 C.ar    1  UNL1        0.0385
     29 C         140.9935  140.3059  165.9973 C.ar    1  UNL1        0.0178
     30 O         138.8225  139.8611  169.2895 O.3     1  UNL1       -0.4045
     31 C         139.7113  140.5143  170.3060 C.3     1  UNL1        0.5753
     32 F         140.6003  141.1674  171.3225 F       1  UNL1       -0.1328
     33 F         140.5292  139.2601  170.3967 F       1  UNL1       -0.1328
     34 F         138.8935  141.7684  170.2152 F       1  UNL1       -0.1328
@<TRIPOS>BOND
     1    20    21    2
     2    21    22   am
     3    22    24    1
     4    24    25   ar
     5    25    26   ar
     6    26    27   ar
     7    27    30    1
     8    30    31    1
     9    31    32    1
    10    31    33    1
    11    31    34    1
    12    27    28   ar
    13    28    29   ar
    14    21     1    1
    15     1     2   ar
    16     2     3   ar
    17     3     4   ar
    18     4     7    1
    19     7     8    1
    20     8     9    1
    21     9    10    1
    22    10    11    1
    23    10    12    1
    24     4     5   ar
    25     5    14    1
    26    14    15   ar
    27    15    16   ar
    28    16    17   ar
    29    17    18   ar
    30    18    19   ar
    31     5     6   ar
    32    29    24   ar
    33     6     1   ar
    34    12     7    1
    35    19    14   ar
    36    22    23    1
    37    11    13    1
@<TRIPOS>MOLECULE
*****
 34 37 0 0 0
SMALL
GASTEIGER

@<TRIPOS>ATOM
      1 C         142.3659  139.5618  161.7724 C.ar    1  UNL1        0.0729
      2 C         142.3550  138.2788  162.5494 C.ar    1  UNL1        0.1048
      3 N         141.4561  138.1314  163.7411 N.ar    1  UNL1       -0.2290
      4 C         140.5680  139.2669  164.1557 C.ar    1  UNL1        0.1318
      5 C         140.5789  140.5498  163.3786 C.ar    1  UNL1        0.0348
      6 C         141.4778  140.6973  162.1870 C.ar    1  UNL1        0.0090
      7 N         139.6690  139.1194  165.3474 N.pl3   1  UNL1       -0.2907
      8 C         139.7991  139.8576  166.6467 C.3     1  UNL1        0.0948
      9 C         138.6927  139.4023  167.5514 C.3     1  UNL1        0.0524
     10 C         137.8788  138.3826  166.8112 C.3     1  UNL1        0.1319
     11 O         136.6731  137.6639  167.3403 O.3     1  UNL1       -0.3827
     12 C         138.4822  138.2077  165.4491 C.3     1  UNL1        0.1213
     13 H         136.4925  137.9591  168.2465 H       1  UNL1        0.2104
     14 C         139.6908  141.6853  163.7933 C.ar    1  UNL1        0.0411
     15 C         138.2440  141.6892  163.3973 C.ar    1  UNL1        0.1023
     16 N         137.3559  142.8247  163.8119 N.ar    1  UNL1       -0.2224
     17 C         137.9146  143.9564  164.6225 C.ar    1  UNL1        0.1989
     18 N         139.3613  143.9525  165.0185 N.ar    1  UNL1       -0.2224
     19 C         140.2494  142.8170  164.6039 C.ar    1  UNL1        0.1023
     20 O         144.4724  138.8308  160.4388 O.2     1  UNL1       -0.2698
     21 C         143.2649  139.7093  160.5806 C.2     1  UNL1        0.2510
     22 N         142.9563  140.7352  159.5308 N.am    1  UNL1       -0.2803
     23 H         142.1637  141.3118  159.6239 H       1  UNL1        0.1552
     24 C         143.8553  140.8827  158.3391 C.ar    1  UNL1        0.0507
     25 C         144.8379  142.0143  158.2763 C.ar    1  UNL1        0.0178
     26 C         145.7368  142.1617  157.0846 C.ar    1  UNL1        0.0385
     27 C         145.6531  141.1776  155.9557 C.ar    1  UNL1        0.1469
     28 C         144.6704  140.0461  156.0184 C.ar    1  UNL1        0.0385
     29 C         143.7715  139.8986  157.2101 C.ar    1  UNL1        0.0178
     30 O         146.5520  141.3251  154.7639 O.3     1  UNL1       -0.4045
     31 C         147.2036  142.6449  154.4748 C.3     1  UNL1        0.5753
     32 F         147.8553  143.9647  154.1856 F       1  UNL1       -0.1328
     33 F         148.4609  142.1700  155.1408 F       1  UNL1       -0.1328
     34 F         145.9463  143.1197  153.8088 F       1  UNL1       -0.1328
@<TRIPOS>BOND
     1    20    21    2
     2    21    22   am
     3    22    24    1
     4    24    25   ar
     5    25    26   ar
     6    26    27   ar
     7    27    30    1
     8    30    31    1
     9    31    32    1
    10    31    33    1
    11    31    34    1
    12    27    28   ar
    13    28    29   ar
    14    21     1    1
    15     1     2   ar
    16     2     3   ar
    17     3     4   ar
    18     4     7    1
    19     7     8    1
    20     8     9    1
    21     9    10    1
    22    10    11    1
    23    10    12    1
    24     4     5   ar
    25     5    14    1
    26    14    15   ar
    27    15    16   ar
    28    16    17   ar
    29    17    18   ar
    30    18    19   ar
    31     5     6   ar
    32    29    24   ar
    33     6     1   ar
    34    12     7    1
    35    19    14   ar
    36    22    23    1
    37    11    13    1
@<TRIPOS>MOLECULE
*****
 34 37 0 0 0
SMALL
GASTEIGER

@<TRIPOS>ATOM
      1 C         139.7675  143.5850  161.5717 C.ar    1  UNL1        0.0729
      2 C         140.4201  144.9221  161.3813 C.ar    1  UNL1        0.1048
      3 N         140.6529  145.4529  159.9979 N.ar    1  UNL1       -0.2290
      4 C         140.2331  144.6465  158.8047 C.ar    1  UNL1        0.1318
      5 C         139.5805  143.3095  158.9951 C.ar    1  UNL1        0.0348
      6 C         139.3477  142.7787  160.3786 C.ar    1  UNL1        0.0090
      7 N         140.4659  145.1773  157.4212 N.pl3   1  UNL1       -0.2907
      8 C         141.6856  144.9422  156.5803 C.3     1  UNL1        0.0948
      9 C         141.4934  145.6560  155.2751 C.3     1  UNL1        0.0524
     10 C         140.1549  146.3323  155.3093 C.3     1  UNL1        0.1319
     11 O         139.5565  147.1592  154.2101 O.3     1  UNL1       -0.3827
     12 C         139.5199  146.0365  156.6357 C.3     1  UNL1        0.1213
     13 H         140.1712  147.1941  153.4605 H       1  UNL1        0.2104
     14 C         139.1606  142.5031  157.8019 C.ar    1  UNL1        0.0411
     15 C         140.1283  141.5535  157.1603 C.ar    1  UNL1        0.1023
     16 N         139.7085  140.7471  155.9672 N.ar    1  UNL1       -0.2224
     17 C         138.3210  140.8904  155.4157 C.ar    1  UNL1        0.1989
     18 N         137.3533  141.8401  156.0573 N.ar    1  UNL1       -0.2224
     19 C         137.7731  142.6464  157.2504 C.ar    1  UNL1        0.1023
     20 O         138.6812  143.8232  163.9198 O.2     1  UNL1       -0.2698
     21 C         139.5347  143.0542  162.9552 C.2     1  UNL1        0.2510
     22 N         140.1554  141.7546  163.3742 N.am    1  UNL1       -0.2803
     23 H         140.7156  141.2499  162.7411 H       1  UNL1        0.1552
     24 C         139.9226  141.2238  164.7577 C.ar    1  UNL1        0.0507
     25 C         140.6592  141.8164  165.9222 C.ar    1  UNL1        0.0178
     26 C         140.4264  141.2856  167.3057 C.ar    1  UNL1        0.0385
     27 C         139.4569  140.1621  167.5246 C.ar    1  UNL1        0.1469
     28 C         138.7203  139.5694  166.3601 C.ar    1  UNL1        0.0385
     29 C         138.9531  140.1003  164.9767 C.ar    1  UNL1        0.0178
     30 O         139.2241  139.6313  168.9082 O.3     1  UNL1       -0.4045
     31 C         139.8766  140.2937  170.0852 C.3     1  UNL1        0.5753
     32 F         140.5292  140.9560  171.2624 F       1  UNL1       -0.1328
     33 F         141.0029  139.3054  170.0170 F       1  UNL1       -0.1328
     34 F         138.7503  141.2819  170.1535 F       1  UNL1       -0.1328
@<TRIPOS>BOND
     1    20    21    2
     2    21    22   am
     3    22    24    1
     4    24    25   ar
     5    25    26   ar
     6    26    27   ar
     7    27    30    1
     8    30    31    1
     9    31    32    1
    10    31    33    1
    11    31    34    1
    12    27    28   ar
    13    28    29   ar
    14    21     1    1
    15     1     2   ar
    16     2     3   ar
    17     3     4   ar
    18     4     7    1
    19     7     8    1
    20     8     9    1
    21     9    10    1
    22    10    11    1
    23    10    12    1
    24     4     5   ar
    25     5    14    1
    26    14    15   ar
    27    15    16   ar
    28    16    17   ar
    29    17    18   ar
    30    18    19   ar
    31     5     6   ar
    32    29    24   ar
    33     6     1   ar
    34    12     7    1
    35    19    14   ar
    36    22    23    1
    37    11    13    1
@<TRIPOS>MOLECULE
*****
 34 37 0 0 0
SMALL
GASTEIGER

@<TRIPOS>ATOM
      1 C         142.3800  140.0362  161.4832 C.ar    1  UNL1        0.0729
      2 C         143.7086  139.4295  161.1416 C.ar    1  UNL1        0.1048
      3 N         143.9841  138.9671  159.7416 N.ar    1  UNL1       -0.2290
      4 C         142.9311  139.1114  158.6831 C.ar    1  UNL1        0.1318
      5 C         141.6025  139.7180  159.0247 C.ar    1  UNL1        0.0348
      6 C         141.3269  140.1804  160.4248 C.ar    1  UNL1        0.0090
      7 N         143.2067  138.6489  157.2830 N.pl3   1  UNL1       -0.2907
      8 C         143.7033  139.5028  156.1541 C.3     1  UNL1        0.0948
      9 C         143.8377  138.6331  154.9394 C.3     1  UNL1        0.0524
     10 C         143.4241  137.2417  155.3176 C.3     1  UNL1        0.1319
     11 O         143.4040  136.0497  154.4072 O.3     1  UNL1       -0.3827
     12 C         143.0342  137.2515  156.7660 C.3     1  UNL1        0.1213
     13 H         143.7025  136.3134  153.5227 H       1  UNL1        0.2104
     14 C         140.5495  139.8623  157.9663 C.ar    1  UNL1        0.0411
     15 C         139.6780  138.6942  157.6112 C.ar    1  UNL1        0.1023
     16 N         138.6250  138.8385  156.5527 N.ar    1  UNL1       -0.2224
     17 C         138.4434  140.1508  155.8494 C.ar    1  UNL1        0.1989
     18 N         139.3149  141.3189  156.2045 N.ar    1  UNL1       -0.2224
     19 C         140.3679  141.1746  157.2629 C.ar    1  UNL1        0.1023
     20 O         140.9592  141.4288  163.1542 O.2     1  UNL1       -0.2698
     21 C         142.1043  140.4986  162.8834 C.2     1  UNL1        0.2510
     22 N         142.9739  140.0309  164.0125 N.am    1  UNL1       -0.2803
     23 H         143.7255  139.4204  163.8348 H       1  UNL1        0.1552
     24 C         142.6982  140.4933  165.4127 C.ar    1  UNL1        0.0507
     25 C         141.8717  139.6455  166.3335 C.ar    1  UNL1        0.0178
     26 C         141.5961  140.1080  167.7335 C.ar    1  UNL1        0.0385
     27 C         142.1471  141.4182  168.2127 C.ar    1  UNL1        0.1469
     28 C         142.9736  142.2661  167.2919 C.ar    1  UNL1        0.0385
     29 C         143.2492  141.8036  165.8919 C.ar    1  UNL1        0.0178
     30 O         141.8714  141.8807  169.6128 O.3     1  UNL1       -0.4045
     31 C         141.3315  143.2590  169.8548 C.3     1  UNL1        0.5753
     32 F         140.7916  144.6375  170.0968 F       1  UNL1       -0.1328
     33 F         140.0143  142.8462  169.2680 F       1  UNL1       -0.1328
     34 F         142.6487  143.6719  170.4417 F       1  UNL1       -0.1328
@<TRIPOS>BOND
     1    20    21    2
     2    21    22   am
     3    22    24    1
     4    24    25   ar
     5    25    26   ar
     6    26    27   ar
     7    27    30    1
     8    30    31    1
     9    31    32    1
    10    31    33    1
    11    31    34    1
    12    27    28   ar
    13    28    29   ar
    14    21     1    1
    15     1     2   ar
    16     2     3   ar
    17     3     4   ar
    18     4     7    1
    19     7     8    1
    20     8     9    1
    21     9    10    1
    22    10    11    1
    23    10    12    1
    24     4     5   ar
    25     5    14    1
    26    14    15   ar
    27    15    16   ar
    28    16    17   ar
    29    17    18   ar
    30    18    19   ar
    31     5     6   ar
    32    29    24   ar
    33     6     1   ar
    34    12     7    1
    35    19    14   ar
    36    22    23    1
    37    11    13    1
