@<TRIPOS>MOLECULE
*****
 28 31 0 0 0
SMALL
GASTEIGER

@<TRIPOS>ATOM
      1 N         143.5614  141.7564  164.7526 N.3     1  UNL1       -0.2723
      2 C         144.6265  142.6227  164.1486 C.3     1  UNL1        0.0614
      3 C         145.7392  141.7317  163.6815 C.3     1  UNL1        0.0175
      4 C         145.3616  140.3147  163.9969 C.3     1  UNL1        0.0175
      5 C         144.0157  140.3299  164.6589 C.3     1  UNL1        0.0614
      6 C         142.6802  140.6448  165.2884 C.3     1  UNL1        0.0595
      7 C         142.3608  142.1102  165.3121 C.3     1  UNL1        0.1686
      8 C         143.3340  143.0992  164.7421 C.3     1  UNL1        0.0595
      9 C         142.2688  142.2328  165.3462 C.3     1  UNL1        0.0861
     10 C         142.1731  142.4992  166.8193 C.3     1  UNL1        0.0228
     11 C         138.0432  144.4161  163.0532 C.3     1  UNL1        0.0381
     12 C         139.1297  143.4465  163.4127 C.ar    1  UNL1        0.0073
     13 C         139.3310  142.0861  162.8138 C.ar    1  UNL1        0.0024
     14 C         140.5314  141.4659  163.4652 C.ar    1  UNL1        0.0037
     15 C         141.0721  142.4430  164.4667 C.ar    1  UNL1        0.0214
     16 S         140.2057  143.6671  164.4342 S.2     1  UNL1       -0.0943
     17 O         141.0682  142.5867  165.9057 O.3     1  UNL1       -0.4791
     18 C         140.4880  141.8871  167.0990 C.ar    1  UNL1        0.1385
     19 C         139.8350  140.5463  166.9382 C.ar    1  UNL1        0.0369
     20 C         139.2548  139.8468  168.1315 C.ar    1  UNL1        0.0033
     21 C         139.3276  140.4880  169.4856 C.ar    1  UNL1        0.0047
     22 C         139.9806  141.8288  169.6463 C.ar    1  UNL1        0.0561
     23 C         140.5608  142.5283  168.4530 C.ar    1  UNL1        0.0414
     24 C         140.0535  142.4700  171.0004 C.2     1  UNL1        0.2428
     25 N         138.9451  143.3671  171.4660 N.am    1  UNL1       -0.3253
     26 O         141.2347  142.2140  171.8889 O.2     1  UNL1       -0.2704
     27 H         138.1699  143.5351  170.8829 H       1  UNL1        0.1453
     28 H         138.9929  143.7879  172.3548 H       1  UNL1        0.1453
@<TRIPOS>BOND
     1    11    12    1
     2    12    13   ar
     3    13    14   ar
     4    14    15   ar
     5    15     9    1
     6     9    10    1
     7     9     1    1
     8     1     2    1
     9     2     3    1
    10     3     4    1
    11     5     4    1
    12     5     6    1
    13     6     7    1
    14     7    17    1
    15    17    18    1
    16    18    19   ar
    17    19    20   ar
    18    20    21   ar
    19    21    22   ar
    20    22    24    1
    21    24    25   am
    22    24    26    2
    23    22    23   ar
    24     7     8    1
    25    15    16   ar
    26    16    12   ar
    27     5     1    1
    28    23    18   ar
    29     8     2    1
    30    25    27    1
    31    25    28    1
@<TRIPOS>MOLECULE
*****
 28 31 0 0 0
SMALL
GASTEIGER

@<TRIPOS>ATOM
      1 N         139.9368  139.5360  165.6604 N.3     1  UNL1       -0.2723
      2 C         139.9920  138.6069  164.4841 C.3     1  UNL1        0.0614
      3 C         138.8692  137.6214  164.6185 C.3     1  UNL1        0.0175
      4 C         138.1200  137.9414  165.8780 C.3     1  UNL1        0.0175
      5 C         138.7798  139.1247  166.5219 C.3     1  UNL1        0.0614
      6 C         139.6315  140.3013  166.9334 C.3     1  UNL1        0.0595
      7 C         140.7489  140.5943  165.9765 C.3     1  UNL1        0.1686
      8 C         140.9292  139.7471  164.7519 C.3     1  UNL1        0.0595
      9 C         140.8739  140.6761  165.9283 C.3     1  UNL1        0.0861
     10 C         142.0695  140.4728  166.8110 C.3     1  UNL1        0.0228
     11 C         141.5803  145.2814  163.4437 C.3     1  UNL1        0.0381
     12 C         140.9403  144.1365  164.1712 C.ar    1  UNL1        0.0073
     13 C         139.4956  144.0378  164.5626 C.ar    1  UNL1        0.0024
     14 C         139.2949  142.7295  165.2684 C.ar    1  UNL1        0.0037
     15 C         140.6155  142.0196  165.3133 C.ar    1  UNL1        0.0214
     16 S         141.6325  142.8893  164.6352 S.2     1  UNL1       -0.0943
     17 O         141.6861  141.7345  166.2444 O.3     1  UNL1       -0.4791
     18 C         141.9181  142.1999  167.6514 C.ar    1  UNL1        0.1385
     19 C         143.2531  141.9871  168.3013 C.ar    1  UNL1        0.0369
     20 C         143.4851  142.4525  169.7082 C.ar    1  UNL1        0.0033
     21 C         142.3820  143.1308  170.4653 C.ar    1  UNL1        0.0047
     22 C         141.0470  143.3437  169.8154 C.ar    1  UNL1        0.0561
     23 C         140.8150  142.8782  168.4084 C.ar    1  UNL1        0.0414
     24 C         139.9440  144.0219  170.5724 C.2     1  UNL1        0.2428
     25 N         139.0063  143.2120  171.4179 N.am    1  UNL1       -0.3253
     26 O         139.7785  145.5103  170.4841 O.2     1  UNL1       -0.2704
     27 H         139.1148  142.2353  171.4759 H       1  UNL1        0.1453
     28 H         138.2823  143.6572  171.9148 H       1  UNL1        0.1453
@<TRIPOS>BOND
     1    11    12    1
     2    12    13   ar
     3    13    14   ar
     4    14    15   ar
     5    15     9    1
     6     9    10    1
     7     9     1    1
     8     1     2    1
     9     2     3    1
    10     3     4    1
    11     5     4    1
    12     5     6    1
    13     6     7    1
    14     7    17    1
    15    17    18    1
    16    18    19   ar
    17    19    20   ar
    18    20    21   ar
    19    21    22   ar
    20    22    24    1
    21    24    25   am
    22    24    26    2
    23    22    23   ar
    24     7     8    1
    25    15    16   ar
    26    16    12   ar
    27     5     1    1
    28    23    18   ar
    29     8     2    1
    30    25    27    1
    31    25    28    1
@<TRIPOS>MOLECULE
*****
 28 31 0 0 0
SMALL
GASTEIGER

@<TRIPOS>ATOM
      1 N         140.6099  143.5810  163.7462 N.3     1  UNL1       -0.2723
      2 C         141.1260  143.6161  162.3383 C.3     1  UNL1        0.0614
      3 C         140.5342  144.8145  161.6574 C.3     1  UNL1        0.0175
      4 C         139.6523  145.5200  162.6446 C.3     1  UNL1        0.0175
      5 C         139.6991  144.7577  163.9356 C.3     1  UNL1        0.0614
      6 C         139.9343  143.8073  165.0847 C.3     1  UNL1        0.0595
      7 C         140.8660  142.6809  164.7481 C.3     1  UNL1        0.1686
      8 C         141.4618  142.5853  163.3749 C.3     1  UNL1        0.0595
      9 C         140.9457  142.5501  164.7829 C.3     1  UNL1        0.0861
     10 C         142.1397  142.7405  165.6708 C.3     1  UNL1        0.0228
     11 C         139.3592  137.5165  164.9439 C.3     1  UNL1        0.0381
     12 C         139.3583  139.0151  165.0057 C.ar    1  UNL1        0.0073
     13 C         138.1755  139.8841  165.3155 C.ar    1  UNL1        0.0024
     14 C         138.6262  141.3140  165.2698 C.ar    1  UNL1        0.0037
     15 C         140.0875  141.3289  164.9317 C.ar    1  UNL1        0.0214
     16 S         140.5400  139.9081  164.7684 S.2     1  UNL1       -0.0943
     17 O         141.2017  141.6500  165.7849 O.3     1  UNL1       -0.4791
     18 C         141.6171  142.0781  167.1612 C.ar    1  UNL1        0.1385
     19 C         143.0261  141.8526  167.6235 C.ar    1  UNL1        0.0369
     20 C         143.4415  142.2807  168.9997 C.ar    1  UNL1        0.0033
     21 C         142.4478  142.9343  169.9137 C.ar    1  UNL1        0.0047
     22 C         141.0388  143.1597  169.4514 C.ar    1  UNL1        0.0561
     23 C         140.6234  142.7316  168.0751 C.ar    1  UNL1        0.0414
     24 C         140.0451  143.8133  170.3655 C.2     1  UNL1        0.2428
     25 N         139.1625  142.9716  171.2387 N.am    1  UNL1       -0.3253
     26 O         139.9340  145.3087  170.4063 O.2     1  UNL1       -0.2704
     27 H         139.2354  141.9901  171.2119 H       1  UNL1        0.1453
     28 H         138.5103  143.4005  171.8386 H       1  UNL1        0.1453
@<TRIPOS>BOND
     1    11    12    1
     2    12    13   ar
     3    13    14   ar
     4    14    15   ar
     5    15     9    1
     6     9    10    1
     7     9     1    1
     8     1     2    1
     9     2     3    1
    10     3     4    1
    11     5     4    1
    12     5     6    1
    13     6     7    1
    14     7    17    1
    15    17    18    1
    16    18    19   ar
    17    19    20   ar
    18    20    21   ar
    19    21    22   ar
    20    22    24    1
    21    24    25   am
    22    24    26    2
    23    22    23   ar
    24     7     8    1
    25    15    16   ar
    26    16    12   ar
    27     5     1    1
    28    23    18   ar
    29     8     2    1
    30    25    27    1
    31    25    28    1
@<TRIPOS>MOLECULE
*****
 28 31 0 0 0
SMALL
GASTEIGER

@<TRIPOS>ATOM
      1 N         142.8315  140.7383  164.2205 N.3     1  UNL1       -0.2723
      2 C         143.0920  140.0078  162.9365 C.3     1  UNL1        0.0614
      3 C         144.5761  139.9572  162.7247 C.3     1  UNL1        0.0175
      4 C         145.2329  140.6565  163.8779 C.3     1  UNL1        0.0175
      5 C         144.1547  141.1392  164.8023 C.3     1  UNL1        0.0614
      6 C         142.8825  141.4992  165.5310 C.3     1  UNL1        0.0595
      7 C         141.6401  141.0338  164.8310 C.3     1  UNL1        0.1686
      8 C         141.7449  140.2881  163.5337 C.3     1  UNL1        0.0595
      9 C         141.4844  141.0186  164.8177 C.3     1  UNL1        0.0861
     10 C         140.8802  140.0517  165.7924 C.3     1  UNL1        0.0228
     11 C         137.6957  144.2968  163.1503 C.3     1  UNL1        0.0381
     12 C         139.0000  143.7726  163.6738 C.ar    1  UNL1        0.0073
     13 C         140.1965  144.5976  164.0448 C.ar    1  UNL1        0.0024
     14 C         141.2728  143.6664  164.5185 C.ar    1  UNL1        0.0037
     15 C         140.7415  142.2658  164.4402 C.ar    1  UNL1        0.0214
     16 S         139.3368  142.3315  163.9181 S.2     1  UNL1       -0.0943
     17 O         140.2930  141.3142  165.4283 O.3     1  UNL1       -0.4791
     18 C         140.1187  141.3154  166.9182 C.ar    1  UNL1        0.1385
     19 C         139.4574  140.1526  167.5969 C.ar    1  UNL1        0.0369
     20 C         139.2831  140.1538  169.0866 C.ar    1  UNL1        0.0033
     21 C         139.7702  141.3178  169.8978 C.ar    1  UNL1        0.0047
     22 C         140.4315  142.4805  169.2191 C.ar    1  UNL1        0.0561
     23 C         140.6058  142.4793  167.7292 C.ar    1  UNL1        0.0414
     24 C         140.9186  143.6445  170.0303 C.2     1  UNL1        0.2428
     25 N         140.0207  144.8228  170.2656 N.am    1  UNL1       -0.3253
     26 O         142.3036  143.6301  170.6062 O.2     1  UNL1       -0.2704
     27 H         139.1117  144.8322  169.8876 H       1  UNL1        0.1453
     28 H         140.3403  145.5867  170.7980 H       1  UNL1        0.1453
@<TRIPOS>BOND
     1    11    12    1
     2    12    13   ar
     3    13    14   ar
     4    14    15   ar
     5    15     9    1
     6     9    10    1
     7     9     1    1
     8     1     2    1
     9     2     3    1
    10     3     4    1
    11     5     4    1
    12     5     6    1
    13     6     7    1
    14     7    17    1
    15    17    18    1
    16    18    19   ar
    17    19    20   ar
    18    20    21   ar
    19    21    22   ar
    20    22    24    1
    21    24    25   am
    22    24    26    2
    23    22    23   ar
    24     7     8    1
    25    15    16   ar
    26    16    12   ar
    27     5     1    1
    28    23    18   ar
    29     8     2    1
    30    25    27    1
    31    25    28    1
@<TRIPOS>MOLECULE
*****
 28 31 0 0 0
SMALL
GASTEIGER

@<TRIPOS>ATOM
      1 N         139.1605  139.1355  163.6917 N.3     1  UNL1       -0.2723
      2 C         138.7696  137.8958  162.9432 C.3     1  UNL1        0.0614
      3 C         137.8780  138.3017  161.8073 C.3     1  UNL1        0.0175
      4 C         137.7179  139.7924  161.8538 C.3     1  UNL1        0.0175
      5 C         138.5105  140.3078  163.0184 C.3     1  UNL1        0.0614
      6 C         139.3777  140.5352  164.2330 C.3     1  UNL1        0.0595
      7 C         139.9591  139.2729  164.7975 C.3     1  UNL1        0.1686
      8 C         139.6550  137.9532  164.1526 C.3     1  UNL1        0.0595
      9 C         140.0459  139.1929  164.9011 C.3     1  UNL1        0.0861
     10 C         139.4419  139.1831  166.2741 C.3     1  UNL1        0.0228
     11 C         144.8532  140.5343  163.1771 C.3     1  UNL1        0.0381
     12 C         143.7451  139.8768  163.9451 C.ar    1  UNL1        0.0073
     13 C         143.9102  138.8506  165.0266 C.ar    1  UNL1        0.0024
     14 C         142.5446  138.4695  165.5164 C.ar    1  UNL1        0.0037
     15 C         141.5355  139.2602  164.7375 C.ar    1  UNL1        0.0214
     16 S         142.2775  140.1299  163.7664 S.2     1  UNL1       -0.0943
     17 O         140.8445  139.3304  166.0070 O.3     1  UNL1       -0.4791
     18 C         140.6766  140.4352  167.0076 C.ar    1  UNL1        0.1385
     19 C         140.6115  141.8611  166.5466 C.ar    1  UNL1        0.0369
     20 C         140.4436  142.9658  167.5472 C.ar    1  UNL1        0.0033
     21 C         140.3407  142.6447  169.0088 C.ar    1  UNL1        0.0047
     22 C         140.4058  141.2188  169.4698 C.ar    1  UNL1        0.0561
     23 C         140.5737  140.1140  168.4692 C.ar    1  UNL1        0.0414
     24 C         140.3029  140.8978  170.9314 C.2     1  UNL1        0.2428
     25 N         139.9187  139.5159  171.3705 N.am    1  UNL1       -0.3253
     26 O         140.5844  141.9586  171.9540 O.2     1  UNL1       -0.2704
     27 H         139.7340  138.8197  170.6994 H       1  UNL1        0.1453
     28 H         139.8511  139.3052  172.3298 H       1  UNL1        0.1453
@<TRIPOS>BOND
     1    11    12    1
     2    12    13   ar
     3    13    14   ar
     4    14    15   ar
     5    15     9    1
     6     9    10    1
     7     9     1    1
     8     1     2    1
     9     2     3    1
    10     3     4    1
    11     5     4    1
    12     5     6    1
    13     6     7    1
    14     7    17    1
    15    17    18    1
    16    18    19   ar
    17    19    20   ar
    18    20    21   ar
    19    21    22   ar
    20    22    24    1
    21    24    25   am
    22    24    26    2
    23    22    23   ar
    24     7     8    1
    25    15    16   ar
    26    16    12   ar
    27     5     1    1
    28    23    18   ar
    29     8     2    1
    30    25    27    1
    31    25    28    1
@<TRIPOS>MOLECULE
*****
 28 31 0 0 0
SMALL
GASTEIGER

@<TRIPOS>ATOM
      1 N         141.5601  143.3417  164.6760 N.3     1  UNL1       -0.2723
      2 C         140.8123  144.4679  164.0261 C.3     1  UNL1        0.0614
      3 C         141.8154  145.4747  163.5464 C.3     1  UNL1        0.0175
      4 C         143.1833  144.9707  163.8999 C.3     1  UNL1        0.0175
      5 C         143.0255  143.6525  164.5980 C.3     1  UNL1        0.0614
      6 C         142.5711  142.3727  165.2575 C.3     1  UNL1        0.0595
      7 C         141.0813  142.1980  165.2610 C.3     1  UNL1        0.1686
      8 C         140.2019  143.2456  164.6453 C.3     1  UNL1        0.0595
      9 C         140.9498  142.1194  165.2952 C.3     1  UNL1        0.0861
     10 C         140.5437  142.1333  166.7391 C.3     1  UNL1        0.0228
     11 C         138.6848  137.9733  162.9371 C.3     1  UNL1        0.0381
     12 C         139.7044  138.9775  163.3866 C.ar    1  UNL1        0.0073
     13 C         141.1579  138.9845  163.0161 C.ar    1  UNL1        0.0024
     14 C         141.8013  140.1623  163.6860 C.ar    1  UNL1        0.0037
     15 C         140.7455  140.8833  164.4705 C.ar    1  UNL1        0.0214
     16 S         139.4495  140.1510  164.2854 S.2     1  UNL1       -0.0943
     17 O         140.4710  140.9756  165.8802 O.3     1  UNL1       -0.4791
     18 C         141.0809  140.3747  167.1118 C.ar    1  UNL1        0.1385
     19 C         142.3512  139.5835  167.0101 C.ar    1  UNL1        0.0369
     20 C         142.9611  138.9826  168.2416 C.ar    1  UNL1        0.0033
     21 C         142.3008  139.1727  169.5749 C.ar    1  UNL1        0.0047
     22 C         141.0305  139.9639  169.6767 C.ar    1  UNL1        0.0561
     23 C         140.4205  140.5649  168.4451 C.ar    1  UNL1        0.0414
     24 C         140.3701  140.1540  171.0100 C.2     1  UNL1        0.2428
     25 N         139.5349  139.0549  171.5969 N.am    1  UNL1       -0.3253
     26 O         140.5450  141.4434  171.7565 O.2     1  UNL1       -0.2704
     27 H         139.4202  138.2087  171.1070 H       1  UNL1        0.1453
     28 H         139.1015  139.1798  172.4720 H       1  UNL1        0.1453
@<TRIPOS>BOND
     1    11    12    1
     2    12    13   ar
     3    13    14   ar
     4    14    15   ar
     5    15     9    1
     6     9    10    1
     7     9     1    1
     8     1     2    1
     9     2     3    1
    10     3     4    1
    11     5     4    1
    12     5     6    1
    13     6     7    1
    14     7    17    1
    15    17    18    1
    16    18    19   ar
    17    19    20   ar
    18    20    21   ar
    19    21    22   ar
    20    22    24    1
    21    24    25   am
    22    24    26    2
    23    22    23   ar
    24     7     8    1
    25    15    16   ar
    26    16    12   ar
    27     5     1    1
    28    23    18   ar
    29     8     2    1
    30    25    27    1
    31    25    28    1
@<TRIPOS>MOLECULE
*****
 28 31 0 0 0
SMALL
GASTEIGER

@<TRIPOS>ATOM
      1 N         140.1034  139.3978  164.2365 N.3     1  UNL1       -0.2723
      2 C         139.3614  139.9358  163.0491 C.3     1  UNL1        0.0614
      3 C         138.5152  138.8300  162.4912 C.3     1  UNL1        0.0175
      4 C         138.7342  137.6086  163.3339 C.3     1  UNL1        0.0175
      5 C         139.7157  137.9595  164.4125 C.3     1  UNL1        0.0614
      6 C         140.7016  138.5860  165.3689 C.3     1  UNL1        0.0595
      7 C         140.9923  140.0268  165.0693 C.3     1  UNL1        0.1686
      8 C         140.3223  140.7016  163.9094 C.3     1  UNL1        0.0595
      9 C         141.0642  140.1636  165.0968 C.3     1  UNL1        0.0861
     10 C         140.5601  140.9373  166.2789 C.3     1  UNL1        0.0228
     11 C         145.9162  141.7442  163.7400 C.3     1  UNL1        0.0381
     12 C         144.7595  140.8824  164.1513 C.ar    1  UNL1        0.0073
     13 C         144.8081  139.4054  164.4083 C.ar    1  UNL1        0.0024
     14 C         143.4298  138.9564  164.7938 C.ar    1  UNL1        0.0037
     15 C         142.5293  140.1559  164.7750 C.ar    1  UNL1        0.0214
     16 S         143.3512  141.3462  164.3780 S.2     1  UNL1       -0.0943
     17 O         141.9533  140.7926  165.9297 O.3     1  UNL1       -0.4791
     18 C         141.9183  140.6306  167.4205 C.ar    1  UNL1        0.1385
     19 C         142.5181  139.4119  168.0568 C.ar    1  UNL1        0.0369
     20 C         142.4831  139.2500  169.5476 C.ar    1  UNL1        0.0033
     21 C         141.8482  140.3067  170.4021 C.ar    1  UNL1        0.0047
     22 C         141.2484  141.5254  169.7658 C.ar    1  UNL1        0.0561
     23 C         141.2834  141.6874  168.2750 C.ar    1  UNL1        0.0414
     24 C         140.6136  142.5822  170.6203 C.2     1  UNL1        0.2428
     25 N         140.2557  143.9122  170.0262 N.am    1  UNL1       -0.3253
     26 O         140.3366  142.3089  172.0691 O.2     1  UNL1       -0.2704
     27 H         140.4375  144.0916  169.0754 H       1  UNL1        0.1453
     28 H         139.8390  144.6058  170.5871 H       1  UNL1        0.1453
@<TRIPOS>BOND
     1    11    12    1
     2    12    13   ar
     3    13    14   ar
     4    14    15   ar
     5    15     9    1
     6     9    10    1
     7     9     1    1
     8     1     2    1
     9     2     3    1
    10     3     4    1
    11     5     4    1
    12     5     6    1
    13     6     7    1
    14     7    17    1
    15    17    18    1
    16    18    19   ar
    17    19    20   ar
    18    20    21   ar
    19    21    22   ar
    20    22    24    1
    21    24    25   am
    22    24    26    2
    23    22    23   ar
    24     7     8    1
    25    15    16   ar
    26    16    12   ar
    27     5     1    1
    28    23    18   ar
    29     8     2    1
    30    25    27    1
    31    25    28    1
@<TRIPOS>MOLECULE
*****
 28 31 0 0 0
SMALL
GASTEIGER

@<TRIPOS>ATOM
      1 N         141.8178  142.3528  167.7739 N.3     1  UNL1       -0.2723
      2 C         143.1566  142.1244  168.4106 C.3     1  UNL1        0.0614
      3 C         143.0716  142.5686  169.8408 C.3     1  UNL1        0.0175
      4 C         141.6802  143.0714  170.0880 C.3     1  UNL1        0.0175
      5 C         140.9053  142.9381  168.8106 C.3     1  UNL1        0.0614
      6 C         140.3840  142.6918  167.4153 C.3     1  UNL1        0.0595
      7 C         141.4077  142.1045  166.4895 C.3     1  UNL1        0.1686
      8 C         142.7940  141.8208  166.9871 C.3     1  UNL1        0.0595
      9 C         141.4551  142.0492  166.3504 C.3     1  UNL1        0.0861
     10 C         141.6148  143.1028  165.2946 C.3     1  UNL1        0.0228
     11 C         140.9545  137.3049  164.0873 C.3     1  UNL1        0.0381
     12 C         140.7028  138.5113  164.9423 C.ar    1  UNL1        0.0073
     13 C         139.5556  138.6957  165.8910 C.ar    1  UNL1        0.0024
     14 C         139.6978  140.0434  166.5339 C.ar    1  UNL1        0.0037
     15 C         140.9329  140.6920  165.9826 C.ar    1  UNL1        0.0214
     16 S         141.5540  139.7450  164.9989 S.2     1  UNL1       -0.0943
     17 O         141.0449  141.8009  165.0659 O.3     1  UNL1       -0.4791
     18 C         140.0815  142.6862  164.3323 C.ar    1  UNL1        0.1385
     19 C         138.6119  142.5944  164.6180 C.ar    1  UNL1        0.0369
     20 C         137.6485  143.4795  163.8844 C.ar    1  UNL1        0.0033
     21 C         138.1548  144.4566  162.8651 C.ar    1  UNL1        0.0047
     22 C         139.6244  144.5484  162.5794 C.ar    1  UNL1        0.0561
     23 C         140.5878  143.6632  163.3130 C.ar    1  UNL1        0.0414
     24 C         140.1307  145.5255  161.5601 C.2     1  UNL1        0.2428
     25 N         141.5155  145.3781  161.0028 N.am    1  UNL1       -0.3253
     26 O         139.2521  146.6501  161.0980 O.2     1  UNL1       -0.2704
     27 H         142.0922  144.6400  161.3061 H       1  UNL1        0.1453
     28 H         141.8478  146.0194  160.3338 H       1  UNL1        0.1453
@<TRIPOS>BOND
     1    11    12    1
     2    12    13   ar
     3    13    14   ar
     4    14    15   ar
     5    15     9    1
     6     9    10    1
     7     9     1    1
     8     1     2    1
     9     2     3    1
    10     3     4    1
    11     5     4    1
    12     5     6    1
    13     6     7    1
    14     7    17    1
    15    17    18    1
    16    18    19   ar
    17    19    20   ar
    18    20    21   ar
    19    21    22   ar
    20    22    24    1
    21    24    25   am
    22    24    26    2
    23    22    23   ar
    24     7     8    1
    25    15    16   ar
    26    16    12   ar
    27     5     1    1
    28    23    18   ar
    29     8     2    1
    30    25    27    1
    31    25    28    1
@<TRIPOS>MOLECULE
*****
 28 31 0 0 0
SMALL
GASTEIGER

@<TRIPOS>ATOM
      1 N         142.7673  143.2327  164.6718 N.3     1  UNL1       -0.2723
      2 C         144.0078  143.8492  164.0966 C.3     1  UNL1        0.0614
      3 C         143.6202  145.1364  163.4313 C.3     1  UNL1        0.0175
      4 C         142.1400  145.3155  163.5954 C.3     1  UNL1        0.0175
      5 C         141.6128  144.1389  164.3621 C.3     1  UNL1        0.0614
      6 C         141.3708  142.8641  165.1336 C.3     1  UNL1        0.0595
      7 C         142.6161  142.0613  165.3679 C.3     1  UNL1        0.1686
      8 C         143.9346  142.5538  164.8494 C.3     1  UNL1        0.0595
      9 C         142.6940  141.9373  165.4247 C.3     1  UNL1        0.0861
     10 C         142.8000  141.9324  166.9209 C.3     1  UNL1        0.0228
     11 C         140.8515  138.2694  162.1031 C.3     1  UNL1        0.0381
     12 C         141.6678  138.9610  163.1545 C.ar    1  UNL1        0.0073
     13 C         142.8100  138.3614  163.9198 C.ar    1  UNL1        0.0024
     14 C         143.3334  139.4033  164.8634 C.ar    1  UNL1        0.0037
     15 C         142.5148  140.6469  164.6812 C.ar    1  UNL1        0.0214
     16 S         141.4853  140.3735  163.6250 S.2     1  UNL1       -0.0943
     17 O         142.5427  140.7659  166.1208 O.3     1  UNL1       -0.4791
     18 C         141.5510  140.6005  167.2339 C.ar    1  UNL1        0.1385
     19 C         140.1680  140.1007  166.9381 C.ar    1  UNL1        0.0369
     20 C         139.1763  139.9353  168.0512 C.ar    1  UNL1        0.0033
     21 C         139.5675  140.2697  169.4601 C.ar    1  UNL1        0.0047
     22 C         140.9505  140.7695  169.7559 C.ar    1  UNL1        0.0561
     23 C         141.9422  140.9349  168.6428 C.ar    1  UNL1        0.0414
     24 C         141.3417  141.1039  171.1649 C.2     1  UNL1        0.2428
     25 N         142.5704  140.4902  171.7678 N.am    1  UNL1       -0.3253
     26 O         140.5041  142.0520  171.9709 O.2     1  UNL1       -0.2704
     27 H         143.1201  139.8679  171.2388 H       1  UNL1        0.1453
     28 H         142.8272  140.7097  172.6926 H       1  UNL1        0.1453
@<TRIPOS>BOND
     1    11    12    1
     2    12    13   ar
     3    13    14   ar
     4    14    15   ar
     5    15     9    1
     6     9    10    1
     7     9     1    1
     8     1     2    1
     9     2     3    1
    10     3     4    1
    11     5     4    1
    12     5     6    1
    13     6     7    1
    14     7    17    1
    15    17    18    1
    16    18    19   ar
    17    19    20   ar
    18    20    21   ar
    19    21    22   ar
    20    22    24    1
    21    24    25   am
    22    24    26    2
    23    22    23   ar
    24     7     8    1
    25    15    16   ar
    26    16    12   ar
    27     5     1    1
    28    23    18   ar
    29     8     2    1
    30    25    27    1
    31    25    28    1
