@<TRIPOS>MOLECULE
*****
 25 27 0 0 0
SMALL
GASTEIGER

@<TRIPOS>ATOM
      1 C         138.9719  144.4010  162.7827 C.ar    1  UNL1        0.1109
      2 C         138.5362  144.2856  164.2133 C.ar    1  UNL1        0.1468
      3 F         138.8600  145.3801  165.1866 F       1  UNL1       -0.2039
      4 C         137.7765  143.0757  164.6708 C.ar    1  UNL1        0.0331
      5 C         137.4527  141.9812  163.6975 C.ar    1  UNL1        0.0416
      6 C         137.8885  142.0966  162.2668 C.ar    1  UNL1        0.1667
      7 C         138.6480  143.3065  161.8094 C.ar    1  UNL1        0.1803
      8 F         139.0838  143.4219  160.3788 F       1  UNL1       -0.2007
      9 N         141.0545  145.9454  162.9479 N.am    1  UNL1       -0.3252
     10 C         139.7315  145.6108  162.3253 C.2     1  UNL1        0.2472
     11 O         139.1680  146.4862  161.2453 O.2     1  UNL1       -0.2702
     12 H         141.5530  146.7395  162.6477 H       1  UNL1        0.1453
     13 H         141.4243  145.3709  163.6568 H       1  UNL1        0.1453
     14 O         137.5646  141.0022  161.2935 O.3     1  UNL1       -0.4661
     15 C         138.5727  139.9284  161.0097 C.3     1  UNL1        0.2575
     16 C         139.7509  139.7462  161.9200 C.ar    1  UNL1        0.1338
     17 N         141.0692  140.4530  161.8080 N.ar    1  UNL1       -0.2202
     18 C         141.9508  139.9689  162.9209 C.ar    1  UNL1        0.1687
     19 N         143.3578  140.3141  163.3094 N.ar    1  UNL1       -0.2237
     20 C         143.9914  139.6534  164.4976 C.ar    1  UNL1        0.1119
     21 C         143.2179  138.6473  165.2974 C.ar    1  UNL1        0.0774
     22 CL        143.8516  137.9866  166.4857 Cl      1  UNL1       -0.0806
     23 C         141.8108  138.3021  164.9090 C.ar    1  UNL1        0.0226
     24 C         141.1773  138.9629  163.7207 C.ar    1  UNL1        0.0673
     25 S         139.8177  138.8253  163.1021 S.2     1  UNL1       -0.0655
@<TRIPOS>BOND
     1     9    10   am
     2    10    11    2
     3    10     1    1
     4     1     2   ar
     5     2     3    1
     6     2     4   ar
     7     4     5   ar
     8     5     6   ar
     9     6    14    1
    10    14    15    1
    11    15    16    1
    12    16    17   ar
    13    17    18   ar
    14    18    19   ar
    15    19    20   ar
    16    20    21   ar
    17    21    22    1
    18    21    23   ar
    19    23    24   ar
    20    24    25   ar
    21     6     7   ar
    22     7     8    1
    23     7     1   ar
    24    25    16   ar
    25    24    18   ar
    26     9    12    1
    27     9    13    1
@<TRIPOS>MOLECULE
*****
 25 27 0 0 0
SMALL
GASTEIGER

@<TRIPOS>ATOM
      1 C         141.1769  140.7859  169.6600 C.ar    1  UNL1        0.1109
      2 C         140.9628  141.9909  168.7928 C.ar    1  UNL1        0.1468
      3 F         140.1173  143.1282  169.2845 F       1  UNL1       -0.2039
      4 C         141.5942  142.0587  167.4338 C.ar    1  UNL1        0.0331
      5 C         142.4397  140.9214  166.9421 C.ar    1  UNL1        0.0416
      6 C         142.6538  139.7164  167.8094 C.ar    1  UNL1        0.1667
      7 C         142.0224  139.6486  169.1683 C.ar    1  UNL1        0.1803
      8 F         142.2365  138.4437  170.0356 F       1  UNL1       -0.2007
      9 N         139.7120  139.5309  171.4004 N.am    1  UNL1       -0.3252
     10 C         140.5455  140.7182  171.0190 C.2     1  UNL1        0.2472
     11 O         140.7477  141.8379  171.9965 O.2     1  UNL1       -0.2702
     12 H         139.2976  139.4865  172.2923 H       1  UNL1        0.1453
     13 H         139.5793  138.7961  170.7588 H       1  UNL1        0.1453
     14 O         143.4992  138.5791  167.3177 O.3     1  UNL1       -0.4661
     15 C         143.8826  138.5010  165.8697 C.3     1  UNL1        0.2575
     16 C         142.8186  138.4266  164.8150 C.ar    1  UNL1        0.1338
     17 N         141.4227  137.9115  165.0056 N.ar    1  UNL1       -0.2202
     18 C         140.7050  138.0208  163.6930 C.ar    1  UNL1        0.1687
     19 N         139.3074  137.6651  163.2807 N.ar    1  UNL1       -0.2237
     20 C         138.8621  137.8919  161.8664 C.ar    1  UNL1        0.1119
     21 C         139.8144  138.4745  160.8645 C.ar    1  UNL1        0.0774
     22 CL        139.3690  138.7013  159.4502 Cl      1  UNL1       -0.0806
     23 C         141.2120  138.8302  161.2769 C.ar    1  UNL1        0.0226
     24 C         141.6573  138.6033  162.6911 C.ar    1  UNL1        0.0673
     25 S         142.9636  138.8541  163.3846 S.2     1  UNL1       -0.0655
@<TRIPOS>BOND
     1     9    10   am
     2    10    11    2
     3    10     1    1
     4     1     2   ar
     5     2     3    1
     6     2     4   ar
     7     4     5   ar
     8     5     6   ar
     9     6    14    1
    10    14    15    1
    11    15    16    1
    12    16    17   ar
    13    17    18   ar
    14    18    19   ar
    15    19    20   ar
    16    20    21   ar
    17    21    22    1
    18    21    23   ar
    19    23    24   ar
    20    24    25   ar
    21     6     7   ar
    22     7     8    1
    23     7     1   ar
    24    25    16   ar
    25    24    18   ar
    26     9    12    1
    27     9    13    1
@<TRIPOS>MOLECULE
*****
 25 27 0 0 0
SMALL
GASTEIGER

@<TRIPOS>ATOM
      1 C         141.7231  138.0025  162.7711 C.ar    1  UNL1        0.1109
      2 C         141.4649  137.7444  164.2260 C.ar    1  UNL1        0.1468
      3 F         142.6128  137.6577  165.1876 F       1  UNL1       -0.2039
      4 C         140.0587  137.5729  164.7193 C.ar    1  UNL1        0.0331
      5 C         138.9107  137.6596  163.7576 C.ar    1  UNL1        0.0416
      6 C         139.1690  137.9177  162.3027 C.ar    1  UNL1        0.1667
      7 C         140.5751  138.0891  161.8095 C.ar    1  UNL1        0.1803
      8 F         140.8333  138.3473  160.3546 F       1  UNL1       -0.2007
      9 N         143.6703  137.2573  161.2210 N.am    1  UNL1       -0.3252
     10 C         143.1292  138.1739  162.2779 C.2     1  UNL1        0.2472
     11 O         143.9943  139.2621  162.8415 O.2     1  UNL1       -0.2702
     12 H         144.5932  137.3698  160.8973 H       1  UNL1        0.1453
     13 H         143.1025  136.5431  160.8511 H       1  UNL1        0.1453
     14 O         138.0210  138.0044  161.3411 O.3     1  UNL1       -0.4661
     15 C         137.6481  139.3250  160.7354 C.3     1  UNL1        0.2575
     16 C         137.8863  140.5941  161.4986 C.ar    1  UNL1        0.1338
     17 N         138.3476  141.8983  160.9187 N.ar    1  UNL1       -0.2202
     18 C         138.4514  142.8922  162.0374 C.ar    1  UNL1        0.1687
     19 N         138.8563  144.3363  162.0626 N.ar    1  UNL1       -0.2237
     20 C         138.8640  145.0904  163.3592 C.ar    1  UNL1        0.1119
     21 C         138.4668  144.4005  164.6305 C.ar    1  UNL1        0.0774
     22 CL        138.4744  145.1547  165.9271 Cl      1  UNL1       -0.0806
     23 C         138.0619  142.9564  164.6052 C.ar    1  UNL1        0.0226
     24 C         138.0542  142.2023  163.3087 C.ar    1  UNL1        0.0673
     25 S         137.7050  140.7820  162.9757 S.2     1  UNL1       -0.0655
@<TRIPOS>BOND
     1     9    10   am
     2    10    11    2
     3    10     1    1
     4     1     2   ar
     5     2     3    1
     6     2     4   ar
     7     4     5   ar
     8     5     6   ar
     9     6    14    1
    10    14    15    1
    11    15    16    1
    12    16    17   ar
    13    17    18   ar
    14    18    19   ar
    15    19    20   ar
    16    20    21   ar
    17    21    22    1
    18    21    23   ar
    19    23    24   ar
    20    24    25   ar
    21     6     7   ar
    22     7     8    1
    23     7     1   ar
    24    25    16   ar
    25    24    18   ar
    26     9    12    1
    27     9    13    1
@<TRIPOS>MOLECULE
*****
 25 27 0 0 0
SMALL
GASTEIGER

@<TRIPOS>ATOM
      1 C         140.8657  141.7642  169.4286 C.ar    1  UNL1        0.1109
      2 C         142.1037  141.6861  168.5854 C.ar    1  UNL1        0.1468
      3 F         143.2821  142.5591  168.9005 F       1  UNL1       -0.2039
      4 C         142.1635  140.7349  167.4271 C.ar    1  UNL1        0.0331
      5 C         140.9851  139.8619  167.1120 C.ar    1  UNL1        0.0416
      6 C         139.7470  139.9401  167.9553 C.ar    1  UNL1        0.1667
      7 C         139.6873  140.8912  169.1136 C.ar    1  UNL1        0.1803
      8 F         138.4492  140.9694  169.9568 F       1  UNL1       -0.2007
      9 N         140.8806  144.1943  170.3476 N.am    1  UNL1       -0.3252
     10 C         140.8060  142.7154  170.5869 C.2     1  UNL1        0.2472
     11 O         140.6717  142.1877  171.9847 O.2     1  UNL1       -0.2702
     12 H         140.8415  144.8186  171.1078 H       1  UNL1        0.1453
     13 H         140.9688  144.5407  169.4302 H       1  UNL1        0.1453
     14 O         138.5686  139.0670  167.6402 O.3     1  UNL1       -0.4661
     15 C         138.4323  138.4540  166.2781 C.3     1  UNL1        0.2575
     16 C         138.3811  139.3313  165.0625 C.ar    1  UNL1        0.1338
     17 N         138.0122  140.7850  165.0392 N.ar    1  UNL1       -0.2202
     18 C         138.0928  141.2611  163.6191 C.ar    1  UNL1        0.1687
     19 N         137.8391  142.6006  162.9936 N.ar    1  UNL1       -0.2237
     20 C         138.0041  142.7806  161.5136 C.ar    1  UNL1        0.1119
     21 C         138.4229  141.6211  160.6591 C.ar    1  UNL1        0.0774
     22 CL        138.5879  141.8012  159.1791 Cl      1  UNL1       -0.0806
     23 C         138.6766  140.2816  161.2846 C.ar    1  UNL1        0.0226
     24 C         138.5116  140.1016  162.7646 C.ar    1  UNL1        0.0673
     25 S         138.6897  138.9089  163.6567 S.2     1  UNL1       -0.0655
@<TRIPOS>BOND
     1     9    10   am
     2    10    11    2
     3    10     1    1
     4     1     2   ar
     5     2     3    1
     6     2     4   ar
     7     4     5   ar
     8     5     6   ar
     9     6    14    1
    10    14    15    1
    11    15    16    1
    12    16    17   ar
    13    17    18   ar
    14    18    19   ar
    15    19    20   ar
    16    20    21   ar
    17    21    22    1
    18    21    23   ar
    19    23    24   ar
    20    24    25   ar
    21     6     7   ar
    22     7     8    1
    23     7     1   ar
    24    25    16   ar
    25    24    18   ar
    26     9    12    1
    27     9    13    1
@<TRIPOS>MOLECULE
*****
 25 27 0 0 0
SMALL
GASTEIGER

@<TRIPOS>ATOM
      1 C         138.0181  141.2561  162.2607 C.ar    1  UNL1        0.1109
      2 C         137.9284  140.9998  163.7359 C.ar    1  UNL1        0.1468
      3 F         137.8392  139.5930  164.2487 F       1  UNL1       -0.2039
      4 C         137.9278  142.1504  164.6983 C.ar    1  UNL1        0.0331
      5 C         138.0169  143.5572  164.1855 C.ar    1  UNL1        0.0416
      6 C         138.1067  143.8134  162.7102 C.ar    1  UNL1        0.1667
      7 C         138.1073  142.6629  161.7478 C.ar    1  UNL1        0.1803
      8 F         138.1970  142.9191  160.2727 F       1  UNL1       -0.2007
      9 N         136.7227  139.5841  160.7519 N.am    1  UNL1       -0.3252
     10 C         138.0187  140.1055  161.2983 C.2     1  UNL1        0.2472
     11 O         139.3153  139.4764  160.8823 O.2     1  UNL1       -0.2702
     12 H         136.7231  138.8289  160.1203 H       1  UNL1        0.1453
     13 H         135.8717  139.9970  161.0249 H       1  UNL1        0.1453
     14 O         138.1958  145.2202  162.1974 O.3     1  UNL1       -0.4661
     15 C         139.5260  145.9099  162.1270 C.3     1  UNL1        0.2575
     16 C         140.7903  145.1028  162.1268 C.ar    1  UNL1        0.1338
     17 N         141.5386  144.6368  160.9132 N.ar    1  UNL1       -0.2202
     18 C         142.7391  143.8659  161.3765 C.ar    1  UNL1        0.1687
     19 N         143.8372  143.1721  160.6264 N.ar    1  UNL1       -0.2237
     20 C         144.9289  142.4679  161.3762 C.ar    1  UNL1        0.1119
     21 C         144.9225  142.4575  162.8761 C.ar    1  UNL1        0.0774
     22 CL        146.0143  141.7533  163.6259 Cl      1  UNL1       -0.0806
     23 C         143.8244  143.1513  163.6263 C.ar    1  UNL1        0.0226
     24 C         142.7327  143.8555  162.8765 C.ar    1  UNL1        0.0673
     25 S         141.5283  144.6199  163.3401 S.2     1  UNL1       -0.0655
@<TRIPOS>BOND
     1     9    10   am
     2    10    11    2
     3    10     1    1
     4     1     2   ar
     5     2     3    1
     6     2     4   ar
     7     4     5   ar
     8     5     6   ar
     9     6    14    1
    10    14    15    1
    11    15    16    1
    12    16    17   ar
    13    17    18   ar
    14    18    19   ar
    15    19    20   ar
    16    20    21   ar
    17    21    22    1
    18    21    23   ar
    19    23    24   ar
    20    24    25   ar
    21     6     7   ar
    22     7     8    1
    23     7     1   ar
    24    25    16   ar
    25    24    18   ar
    26     9    12    1
    27     9    13    1
@<TRIPOS>MOLECULE
*****
 25 27 0 0 0
SMALL
GASTEIGER

@<TRIPOS>ATOM
      1 C         138.5181  139.3322  165.1955 C.ar    1  UNL1        0.1109
      2 C         138.8001  138.0237  164.5187 C.ar    1  UNL1        0.1468
      3 F         139.2776  136.8509  165.3229 F       1  UNL1       -0.2039
      4 C         138.6047  137.8878  163.0377 C.ar    1  UNL1        0.0331
      5 C         138.1273  139.0606  162.2335 C.ar    1  UNL1        0.0416
      6 C         137.8453  140.3692  162.9104 C.ar    1  UNL1        0.1667
      7 C         138.0407  140.5050  164.3913 C.ar    1  UNL1        0.1803
      8 F         137.7587  141.8136  165.0681 F       1  UNL1       -0.2007
      9 N         139.7776  140.3796  167.2121 N.am    1  UNL1       -0.3252
     10 C         138.7135  139.4681  166.6765 C.2     1  UNL1        0.2472
     11 O         137.8449  138.6923  167.6219 O.2     1  UNL1       -0.2702
     12 H         139.9058  140.4687  168.1842 H       1  UNL1        0.1453
     13 H         140.3477  140.8887  166.5917 H       1  UNL1        0.1453
     14 O         137.3679  141.5419  162.1062 O.3     1  UNL1       -0.4661
     15 C         138.3533  142.5473  161.5884 C.3     1  UNL1        0.2575
     16 C         139.7426  142.5948  162.1519 C.ar    1  UNL1        0.1338
     17 N         140.1929  143.4229  163.3188 N.ar    1  UNL1       -0.2202
     18 C         141.6541  143.1625  163.5356 C.ar    1  UNL1        0.1687
     19 N         142.6309  143.6981  164.5400 N.ar    1  UNL1       -0.2237
     20 C         144.0604  143.2448  164.5116 C.ar    1  UNL1        0.1119
     21 C         144.5132  142.2557  163.4788 C.ar    1  UNL1        0.0774
     22 CL        145.9428  141.8024  163.4504 Cl      1  UNL1       -0.0806
     23 C         143.5364  141.7201  162.4743 C.ar    1  UNL1        0.0226
     24 C         142.1069  142.1735  162.5027 C.ar    1  UNL1        0.0673
     25 S         140.9255  141.8227  161.6476 S.2     1  UNL1       -0.0655
@<TRIPOS>BOND
     1     9    10   am
     2    10    11    2
     3    10     1    1
     4     1     2   ar
     5     2     3    1
     6     2     4   ar
     7     4     5   ar
     8     5     6   ar
     9     6    14    1
    10    14    15    1
    11    15    16    1
    12    16    17   ar
    13    17    18   ar
    14    18    19   ar
    15    19    20   ar
    16    20    21   ar
    17    21    22    1
    18    21    23   ar
    19    23    24   ar
    20    24    25   ar
    21     6     7   ar
    22     7     8    1
    23     7     1   ar
    24    25    16   ar
    25    24    18   ar
    26     9    12    1
    27     9    13    1
@<TRIPOS>MOLECULE
*****
 25 27 0 0 0
SMALL
GASTEIGER

@<TRIPOS>ATOM
      1 C         142.8950  143.5629  163.0407 C.ar    1  UNL1        0.1109
      2 C         143.8537  144.0878  164.0679 C.ar    1  UNL1        0.1468
      3 F         143.7736  145.5201  164.5060 F       1  UNL1       -0.2039
      4 C         144.8926  143.1802  164.6572 C.ar    1  UNL1        0.0331
      5 C         144.9727  141.7479  164.2191 C.ar    1  UNL1        0.0416
      6 C         144.0139  141.2230  163.1918 C.ar    1  UNL1        0.1667
      7 C         142.9751  142.1305  162.6026 C.ar    1  UNL1        0.1803
      8 F         142.0163  141.6057  161.5754 F       1  UNL1       -0.2007
      9 N         142.0423  145.0270  161.0711 N.am    1  UNL1       -0.3252
     10 C         141.8561  144.4704  162.4515 C.2     1  UNL1        0.2472
     11 O         140.6310  144.8214  163.2427 O.2     1  UNL1       -0.2702
     12 H         141.3605  145.6226  160.6844 H       1  UNL1        0.1453
     13 H         142.8464  144.7967  160.5518 H       1  UNL1        0.1453
     14 O         144.0940  139.7906  162.7537 O.3     1  UNL1       -0.4661
     15 C         143.2928  138.7423  163.4671 C.3     1  UNL1        0.2575
     16 C         142.7410  139.0208  164.8338 C.ar    1  UNL1        0.1338
     17 N         143.4907  138.9045  166.1278 N.ar    1  UNL1       -0.2202
     18 C         142.5557  139.2764  167.2403 C.ar    1  UNL1        0.1687
     19 N         142.7417  139.3446  168.7271 N.ar    1  UNL1       -0.2237
     20 C         141.6001  139.7589  169.6075 C.ar    1  UNL1        0.1119
     21 C         140.2726  140.1050  169.0010 C.ar    1  UNL1        0.0774
     22 CL        139.1309  140.5194  169.8814 Cl      1  UNL1       -0.0806
     23 C         140.0866  140.0369  167.5142 C.ar    1  UNL1        0.0226
     24 C         141.2282  139.6226  166.6338 C.ar    1  UNL1        0.0673
     25 S         141.3427  139.4646  165.1465 S.2     1  UNL1       -0.0655
@<TRIPOS>BOND
     1     9    10   am
     2    10    11    2
     3    10     1    1
     4     1     2   ar
     5     2     3    1
     6     2     4   ar
     7     4     5   ar
     8     5     6   ar
     9     6    14    1
    10    14    15    1
    11    15    16    1
    12    16    17   ar
    13    17    18   ar
    14    18    19   ar
    15    19    20   ar
    16    20    21   ar
    17    21    22    1
    18    21    23   ar
    19    23    24   ar
    20    24    25   ar
    21     6     7   ar
    22     7     8    1
    23     7     1   ar
    24    25    16   ar
    25    24    18   ar
    26     9    12    1
    27     9    13    1
@<TRIPOS>MOLECULE
*****
 25 27 0 0 0
SMALL
GASTEIGER

@<TRIPOS>ATOM
      1 C         140.5453  141.7552  169.4212 C.ar    1  UNL1        0.1109
      2 C         139.4744  140.7451  169.1339 C.ar    1  UNL1        0.1468
      3 F         138.2723  140.6519  170.0263 F       1  UNL1       -0.2039
      4 C         139.6054  139.8280  167.9541 C.ar    1  UNL1        0.0331
      5 C         140.8074  139.9212  167.0616 C.ar    1  UNL1        0.0416
      6 C         141.8784  140.9314  167.3490 C.ar    1  UNL1        0.1667
      7 C         141.7473  141.8484  168.5287 C.ar    1  UNL1        0.1803
      8 F         142.8183  142.8585  168.8160 F       1  UNL1       -0.2007
      9 N         140.0729  144.1179  170.3929 N.am    1  UNL1       -0.3252
     10 C         140.4143  142.6722  170.6010 C.2     1  UNL1        0.2472
     11 O         140.6246  142.1435  171.9889 O.2     1  UNL1       -0.2702
     12 H         139.9869  144.7198  171.1672 H       1  UNL1        0.1453
     13 H         139.9348  144.4650  169.4820 H       1  UNL1        0.1453
     14 O         143.0804  141.0245  166.4565 O.3     1  UNL1       -0.4661
     15 C         142.9372  140.8029  164.9799 C.3     1  UNL1        0.2575
     16 C         142.3419  141.8742  164.1150 C.ar    1  UNL1        0.1338
     17 N         141.7336  143.1584  164.5952 N.ar    1  UNL1       -0.2202
     18 C         141.2662  143.9273  163.3950 C.ar    1  UNL1        0.1687
     19 N         140.5910  145.2595  163.2569 N.ar    1  UNL1       -0.2237
     20 C         140.2353  145.7827  161.8969 C.ar    1  UNL1        0.1119
     21 C         140.5547  144.9735  160.6749 C.ar    1  UNL1        0.0774
     22 CL        140.1989  145.4967  159.3148 Cl      1  UNL1       -0.0806
     23 C         141.2299  143.6413  160.8130 C.ar    1  UNL1        0.0226
     24 C         141.5857  143.1181  162.1730 C.ar    1  UNL1        0.0673
     25 S         142.2505  141.8493  162.6180 S.2     1  UNL1       -0.0655
@<TRIPOS>BOND
     1     9    10   am
     2    10    11    2
     3    10     1    1
     4     1     2   ar
     5     2     3    1
     6     2     4   ar
     7     4     5   ar
     8     5     6   ar
     9     6    14    1
    10    14    15    1
    11    15    16    1
    12    16    17   ar
    13    17    18   ar
    14    18    19   ar
    15    19    20   ar
    16    20    21   ar
    17    21    22    1
    18    21    23   ar
    19    23    24   ar
    20    24    25   ar
    21     6     7   ar
    22     7     8    1
    23     7     1   ar
    24    25    16   ar
    25    24    18   ar
    26     9    12    1
    27     9    13    1
@<TRIPOS>MOLECULE
*****
 25 27 0 0 0
SMALL
GASTEIGER

@<TRIPOS>ATOM
      1 C         140.9145  140.0914  169.4857 C.ar    1  UNL1        0.1109
      2 C         142.3877  140.1140  169.2044 C.ar    1  UNL1        0.1468
      3 F         143.3645  140.2628  170.3330 F       1  UNL1       -0.2039
      4 C         142.8841  139.9878  167.7945 C.ar    1  UNL1        0.0331
      5 C         141.9072  139.8390  166.6660 C.ar    1  UNL1        0.0416
      6 C         140.4340  139.8164  166.9473 C.ar    1  UNL1        0.1667
      7 C         139.9376  139.9426  168.3571 C.ar    1  UNL1        0.1803
      8 F         138.4645  139.9200  168.6384 F       1  UNL1       -0.2007
      9 N         139.6655  139.0857  171.5299 N.am    1  UNL1       -0.3252
     10 C         140.4181  140.2176  170.8955 C.2     1  UNL1        0.2472
     11 O         140.6744  141.4758  171.6711 O.2     1  UNL1       -0.2702
     12 H         139.3398  139.1686  172.4552 H       1  UNL1        0.1453
     13 H         139.4973  138.2600  171.0209 H       1  UNL1        0.1453
     14 O         139.4571  139.6676  165.8188 O.3     1  UNL1       -0.4661
     15 C         138.5063  140.7825  165.4979 C.3     1  UNL1        0.2575
     16 C         138.8828  141.8204  164.4825 C.ar    1  UNL1        0.1338
     17 N         138.2704  143.1828  164.3456 N.ar    1  UNL1       -0.2202
     18 C         138.9469  143.8826  163.2043 C.ar    1  UNL1        0.1687
     19 N         138.7577  145.2465  162.6093 N.ar    1  UNL1       -0.2237
     20 C         139.5990  145.6804  161.4457 C.ar    1  UNL1        0.1119
     21 C         140.6295  144.7504  160.8772 C.ar    1  UNL1        0.0774
     22 CL        141.4708  145.1844  159.7136 Cl      1  UNL1       -0.0806
     23 C         140.8188  143.3866  161.4722 C.ar    1  UNL1        0.0226
     24 C         139.9775  142.9527  162.6358 C.ar    1  UNL1        0.0673
     25 S         139.9378  141.6782  163.4258 S.2     1  UNL1       -0.0655
@<TRIPOS>BOND
     1     9    10   am
     2    10    11    2
     3    10     1    1
     4     1     2   ar
     5     2     3    1
     6     2     4   ar
     7     4     5   ar
     8     5     6   ar
     9     6    14    1
    10    14    15    1
    11    15    16    1
    12    16    17   ar
    13    17    18   ar
    14    18    19   ar
    15    19    20   ar
    16    20    21   ar
    17    21    22    1
    18    21    23   ar
    19    23    24   ar
    20    24    25   ar
    21     6     7   ar
    22     7     8    1
    23     7     1   ar
    24    25    16   ar
    25    24    18   ar
    26     9    12    1
    27     9    13    1
