@<TRIPOS>MOLECULE
*****
 33 36 0 0 0
SMALL
GASTEIGER

@<TRIPOS>ATOM
      1 N         142.0290  139.0057  165.7590 N.ar    1  UNL1       -0.2570
      2 C         141.3162  139.7115  166.8742 C.ar    1  UNL1        0.1213
      3 C         139.8170  139.7518  166.8993 C.ar    1  UNL1        0.0935
      4 C         139.0304  139.0862  165.8091 C.ar    1  UNL1        0.2674
      5 O         137.5312  139.1264  165.8342 O.2     1  UNL1       -0.2667
      6 N         139.7432  138.3804  164.6939 N.ar    1  UNL1       -0.2428
      7 C         141.2425  138.3402  164.6688 C.ar    1  UNL1        0.3357
      8 O         141.9553  137.6344  163.5535 O.2     1  UNL1       -0.2461
      9 N         142.1026  140.3771  167.9644 N.pl3   1  UNL1       -0.2930
     10 C         142.4791  141.8239  167.8415 C.3     1  UNL1        0.0922
     11 C         143.2655  142.4895  168.9316 C.3     1  UNL1        0.0229
     12 C         143.6755  141.7083  170.1447 C.3     1  UNL1        0.0190
     13 C         143.2991  140.2615  170.2677 C.3     1  UNL1        0.0709
     14 N         143.7091  139.4803  171.4808 N.3     1  UNL1       -0.3208
     15 C         142.5126  139.5959  169.1775 C.3     1  UNL1        0.1075
     16 H         143.3716  138.5214  171.3977 H       1  UNL1        0.1189
     17 H         143.3082  139.9109  172.3140 H       1  UNL1        0.1189
     18 C         143.5282  138.9655  165.7339 C.3     1  UNL1        0.1879
     19 C         145.8138  141.8560  163.1511 C.3     1  UNL1        0.0900
     20 C         145.0519  140.8925  164.0120 C.1     1  UNL1       -0.0881
     21 C         144.2900  139.9291  164.8729 C.1     1  UNL1       -0.0655
     22 C         138.9568  137.7148  163.6037 C.3     1  UNL1        0.1592
     23 C         138.7411  138.4194  162.2971 C.ar    1  UNL1        0.0820
     24 C         137.7481  139.5398  162.2041 C.ar    1  UNL1        0.0167
     25 C         137.5325  140.2443  160.8976 C.ar    1  UNL1        0.0028
     26 C         138.3099  139.8285  159.6840 C.ar    1  UNL1        0.0177
     27 C         138.0943  140.5331  158.3774 C.ar    1  UNL1        0.0024
     28 C         138.8717  140.1173  157.1639 C.ar    1  UNL1        0.0115
     29 C         139.8648  138.9969  157.2569 C.ar    1  UNL1        0.0592
     30 CL        140.6422  138.5811  156.0434 Cl      1  UNL1       -0.0822
     31 C         140.0804  138.2924  158.5635 C.ar    1  UNL1        0.0305
     32 C         139.3030  138.7082  159.7770 C.ar    1  UNL1        0.0818
     33 N         139.5186  138.0036  161.0835 N.ar    1  UNL1       -0.2477
@<TRIPOS>BOND
     1    19    20    1
     2    20    21    3
     3    21    18    1
     4    18     1    1
     5     1     2   ar
     6     2     9    1
     7     9    10    1
     8    10    11    1
     9    11    12    1
    10    12    13    1
    11    13    14    1
    12    13    15    1
    13     2     3   ar
    14     3     4   ar
    15     4     5    2
    16     4     6   ar
    17     6    22    1
    18    22    23    1
    19    23    24   ar
    20    24    25   ar
    21    25    26   ar
    22    26    27   ar
    23    27    28   ar
    24    28    29   ar
    25    29    30    1
    26    29    31   ar
    27    31    32   ar
    28    32    33   ar
    29     6     7   ar
    30     7     8    2
    31     7     1   ar
    32    15     9    1
    33    33    23   ar
    34    32    26   ar
    35    14    16    1
    36    14    17    1
@<TRIPOS>MOLECULE
*****
 33 36 0 0 0
SMALL
GASTEIGER

@<TRIPOS>ATOM
      1 N         141.7670  138.4891  161.5763 N.ar    1  UNL1       -0.2570
      2 C         140.3221  138.7788  161.8561 C.ar    1  UNL1        0.1213
      3 C         139.3679  139.0002  160.7202 C.ar    1  UNL1        0.0935
      4 C         139.8586  138.9319  159.3043 C.ar    1  UNL1        0.2674
      5 O         138.9043  139.1533  158.1684 O.2     1  UNL1       -0.2667
      6 N         141.3035  138.6422  159.0244 N.ar    1  UNL1       -0.2428
      7 C         142.2577  138.4208  160.1605 C.ar    1  UNL1        0.3357
      8 O         143.7026  138.1311  159.8806 O.2     1  UNL1       -0.2461
      9 N         139.8315  138.8472  163.2719 N.pl3   1  UNL1       -0.2930
     10 C         139.2080  137.6405  163.9087 C.3     1  UNL1        0.0922
     11 C         138.7174  137.7089  165.3245 C.3     1  UNL1        0.0229
     12 C         138.8501  138.9838  166.1036 C.3     1  UNL1        0.0190
     13 C         139.4735  140.1904  165.4669 C.3     1  UNL1        0.0709
     14 N         139.6062  141.4653  166.2459 N.3     1  UNL1       -0.3208
     15 C         139.9642  140.1221  164.0510 C.3     1  UNL1        0.1075
     16 H         140.0487  142.1756  165.6628 H       1  UNL1        0.1189
     17 H         140.1788  141.2999  167.0736 H       1  UNL1        0.1189
     18 C         142.7213  138.2677  162.7122 C.3     1  UNL1        0.1879
     19 C         145.7290  141.4416  163.7753 C.3     1  UNL1        0.0900
     20 C         144.7264  140.3837  163.4209 C.1     1  UNL1       -0.0881
     21 C         143.7239  139.3258  163.0666 C.1     1  UNL1       -0.0655
     22 C         141.7941  138.5738  157.6086 C.3     1  UNL1        0.1592
     23 C         141.8078  137.2616  156.8821 C.ar    1  UNL1        0.0820
     24 C         140.7391  136.9497  155.8768 C.ar    1  UNL1        0.0167
     25 C         140.7528  135.6375  155.1503 C.ar    1  UNL1        0.0028
     26 C         141.8352  134.6371  155.4291 C.ar    1  UNL1        0.0177
     27 C         141.8489  133.3248  154.7026 C.ar    1  UNL1        0.0024
     28 C         142.9312  132.3244  154.9814 C.ar    1  UNL1        0.0115
     29 C         143.9999  132.6364  155.9867 C.ar    1  UNL1        0.0592
     30 CL        145.0823  131.6360  156.2655 Cl      1  UNL1       -0.0822
     31 C         143.9862  133.9486  156.7132 C.ar    1  UNL1        0.0305
     32 C         142.9039  134.9490  156.4344 C.ar    1  UNL1        0.0818
     33 N         142.8902  136.2612  157.1609 N.ar    1  UNL1       -0.2477
@<TRIPOS>BOND
     1    19    20    1
     2    20    21    3
     3    21    18    1
     4    18     1    1
     5     1     2   ar
     6     2     9    1
     7     9    10    1
     8    10    11    1
     9    11    12    1
    10    12    13    1
    11    13    14    1
    12    13    15    1
    13     2     3   ar
    14     3     4   ar
    15     4     5    2
    16     4     6   ar
    17     6    22    1
    18    22    23    1
    19    23    24   ar
    20    24    25   ar
    21    25    26   ar
    22    26    27   ar
    23    27    28   ar
    24    28    29   ar
    25    29    30    1
    26    29    31   ar
    27    31    32   ar
    28    32    33   ar
    29     6     7   ar
    30     7     8    2
    31     7     1   ar
    32    15     9    1
    33    33    23   ar
    34    32    26   ar
    35    14    16    1
    36    14    17    1
@<TRIPOS>MOLECULE
*****
 33 36 0 0 0
SMALL
GASTEIGER

@<TRIPOS>ATOM
      1 N         139.6593  141.1236  165.9927 N.ar    1  UNL1       -0.2570
      2 C         140.1728  142.3923  166.6064 C.ar    1  UNL1        0.1213
      3 C         139.8499  143.7146  165.9762 C.ar    1  UNL1        0.0935
      4 C         139.0135  143.7682  164.7322 C.ar    1  UNL1        0.2674
      5 O         138.6906  145.0905  164.1019 O.2     1  UNL1       -0.2667
      6 N         138.4999  142.4995  164.1185 N.ar    1  UNL1       -0.2428
      7 C         138.8229  141.1771  164.7488 C.ar    1  UNL1        0.3357
      8 O         138.3093  139.9084  164.1351 O.2     1  UNL1       -0.2461
      9 N         141.0093  142.3387  167.8504 N.pl3   1  UNL1       -0.2930
     10 C         142.5057  142.3219  167.7478 C.3     1  UNL1        0.0922
     11 C         143.3422  142.2683  168.9918 C.3     1  UNL1        0.0229
     12 C         142.6822  142.2316  170.3383 C.3     1  UNL1        0.0190
     13 C         141.1859  142.2484  170.4409 C.3     1  UNL1        0.0709
     14 N         140.5260  142.2117  171.7874 N.3     1  UNL1       -0.3208
     15 C         140.3494  142.3020  169.1969 C.3     1  UNL1        0.1075
     16 H         139.5129  142.2294  171.6702 H       1  UNL1        0.1189
     17 H         140.8194  143.0226  172.3321 H       1  UNL1        0.1189
     18 C         139.9822  139.8013  166.6230 C.3     1  UNL1        0.1879
     19 C         144.1450  138.1198  166.3175 C.3     1  UNL1        0.0900
     20 C         142.7574  138.6803  166.4193 C.1     1  UNL1       -0.0881
     21 C         141.3699  139.2408  166.5212 C.1     1  UNL1       -0.0655
     22 C         137.6635  142.5530  162.8745 C.3     1  UNL1        0.1592
     23 C         138.3210  142.5210  161.5266 C.ar    1  UNL1        0.0820
     24 C         138.1992  141.3016  160.6616 C.ar    1  UNL1        0.0167
     25 C         138.8567  141.2696  159.3138 C.ar    1  UNL1        0.0028
     26 C         139.6360  142.4569  158.8310 C.ar    1  UNL1        0.0177
     27 C         140.2935  142.4249  157.4831 C.ar    1  UNL1        0.0024
     28 C         141.0727  143.6122  157.0004 C.ar    1  UNL1        0.0115
     29 C         141.1945  144.8316  157.8655 C.ar    1  UNL1        0.0592
     30 CL        141.9737  146.0189  157.3828 Cl      1  UNL1       -0.0822
     31 C         140.5370  144.8636  159.2133 C.ar    1  UNL1        0.0305
     32 C         139.7577  143.6763  159.6961 C.ar    1  UNL1        0.0818
     33 N         139.1002  143.7083  161.0439 N.ar    1  UNL1       -0.2477
@<TRIPOS>BOND
     1    19    20    1
     2    20    21    3
     3    21    18    1
     4    18     1    1
     5     1     2   ar
     6     2     9    1
     7     9    10    1
     8    10    11    1
     9    11    12    1
    10    12    13    1
    11    13    14    1
    12    13    15    1
    13     2     3   ar
    14     3     4   ar
    15     4     5    2
    16     4     6   ar
    17     6    22    1
    18    22    23    1
    19    23    24   ar
    20    24    25   ar
    21    25    26   ar
    22    26    27   ar
    23    27    28   ar
    24    28    29   ar
    25    29    30    1
    26    29    31   ar
    27    31    32   ar
    28    32    33   ar
    29     6     7   ar
    30     7     8    2
    31     7     1   ar
    32    15     9    1
    33    33    23   ar
    34    32    26   ar
    35    14    16    1
    36    14    17    1
@<TRIPOS>MOLECULE
*****
 33 36 0 0 0
SMALL
GASTEIGER

@<TRIPOS>ATOM
      1 N         141.7297  140.3696  165.8689 N.ar    1  UNL1       -0.2570
      2 C         140.8898  140.5937  167.0913 C.ar    1  UNL1        0.1213
      3 C         139.5310  139.9665  167.1930 C.ar    1  UNL1        0.0935
      4 C         139.0121  139.1151  166.0723 C.ar    1  UNL1        0.2674
      5 O         137.6534  138.4879  166.1740 O.2     1  UNL1       -0.2667
      6 N         139.8521  138.8910  164.8499 N.ar    1  UNL1       -0.2428
      7 C         141.2109  139.5182  164.7482 C.ar    1  UNL1        0.3357
      8 O         142.0508  139.2941  163.5258 O.2     1  UNL1       -0.2461
      9 N         141.4085  141.4450  168.2121 N.pl3   1  UNL1       -0.2930
     10 C         142.7190  141.1124  168.8619 C.3     1  UNL1        0.0922
     11 C         143.2378  141.9638  169.9826 C.3     1  UNL1        0.0229
     12 C         142.4462  143.1477  170.4535 C.3     1  UNL1        0.0190
     13 C         141.1359  143.4803  169.8037 C.3     1  UNL1        0.0709
     14 N         140.3443  144.6642  170.2746 N.3     1  UNL1       -0.3208
     15 C         140.6170  142.6289  168.6830 C.3     1  UNL1        0.1075
     16 H         139.4878  144.7406  169.7260 H       1  UNL1        0.1189
     17 H         140.8992  145.5122  170.1585 H       1  UNL1        0.1189
     18 C         143.0884  140.9968  165.7673 C.3     1  UNL1        0.1879
     19 C         143.5522  145.0735  163.9192 C.3     1  UNL1        0.0900
     20 C         143.3976  143.7146  164.5352 C.1     1  UNL1       -0.0881
     21 C         143.2430  142.3557  165.1512 C.1     1  UNL1       -0.0655
     22 C         139.3333  138.0396  163.7292 C.3     1  UNL1        0.1592
     23 C         138.9831  138.6658  162.4118 C.ar    1  UNL1        0.0820
     24 C         137.9357  139.7374  162.3455 C.ar    1  UNL1        0.0167
     25 C         137.5856  140.3634  161.0282 C.ar    1  UNL1        0.0028
     26 C         138.2829  139.9179  159.7771 C.ar    1  UNL1        0.0177
     27 C         137.9327  140.5440  158.4597 C.ar    1  UNL1        0.0024
     28 C         138.6301  140.0984  157.2087 C.ar    1  UNL1        0.0115
     29 C         139.6775  139.0267  157.2750 C.ar    1  UNL1        0.0592
     30 CL        140.3749  138.5812  156.0239 Cl      1  UNL1       -0.0822
     31 C         140.0277  138.4007  158.5923 C.ar    1  UNL1        0.0305
     32 C         139.3303  138.8462  159.8434 C.ar    1  UNL1        0.0818
     33 N         139.6804  138.2202  161.1607 N.ar    1  UNL1       -0.2477
@<TRIPOS>BOND
     1    19    20    1
     2    20    21    3
     3    21    18    1
     4    18     1    1
     5     1     2   ar
     6     2     9    1
     7     9    10    1
     8    10    11    1
     9    11    12    1
    10    12    13    1
    11    13    14    1
    12    13    15    1
    13     2     3   ar
    14     3     4   ar
    15     4     5    2
    16     4     6   ar
    17     6    22    1
    18    22    23    1
    19    23    24   ar
    20    24    25   ar
    21    25    26   ar
    22    26    27   ar
    23    27    28   ar
    24    28    29   ar
    25    29    30    1
    26    29    31   ar
    27    31    32   ar
    28    32    33   ar
    29     6     7   ar
    30     7     8    2
    31     7     1   ar
    32    15     9    1
    33    33    23   ar
    34    32    26   ar
    35    14    16    1
    36    14    17    1
@<TRIPOS>MOLECULE
*****
 33 36 0 0 0
SMALL
GASTEIGER

@<TRIPOS>ATOM
      1 N         142.0296  140.0323  166.0118 N.ar    1  UNL1       -0.2570
      2 C         140.7670  140.0694  166.8207 C.ar    1  UNL1        0.1213
      3 C         139.6128  139.1857  166.4504 C.ar    1  UNL1        0.0935
      4 C         139.7213  138.2650  165.2712 C.ar    1  UNL1        0.2674
      5 O         138.5672  137.3813  164.9009 O.2     1  UNL1       -0.2667
      6 N         140.9840  138.2279  164.4623 N.ar    1  UNL1       -0.2428
      7 C         142.1382  139.1116  164.8326 C.ar    1  UNL1        0.3357
      8 O         143.4008  139.0745  164.0237 O.2     1  UNL1       -0.2461
      9 N         140.6584  140.9901  167.9998 N.pl3   1  UNL1       -0.2930
     10 C         140.4504  142.4603  167.7868 C.3     1  UNL1        0.0922
     11 C         140.3419  143.3810  168.9660 C.3     1  UNL1        0.0229
     12 C         140.4414  142.8316  170.3582 C.3     1  UNL1        0.0190
     13 C         140.6493  141.3615  170.5712 C.3     1  UNL1        0.0709
     14 N         140.7488  140.8121  171.9634 N.3     1  UNL1       -0.3208
     15 C         140.7579  140.4407  169.3920 C.3     1  UNL1        0.1075
     16 H         140.8885  139.8026  171.9214 H       1  UNL1        0.1189
     17 H         139.8880  141.0153  172.4715 H       1  UNL1        0.1189
     18 C         143.1838  140.9159  166.3820 C.3     1  UNL1        0.1879
     19 C         143.8608  144.7770  164.1722 C.3     1  UNL1        0.0900
     20 C         143.6351  143.4900  164.9088 C.1     1  UNL1       -0.0881
     21 C         143.4095  142.2030  165.6454 C.1     1  UNL1       -0.0655
     22 C         141.0925  137.3072  163.2831 C.3     1  UNL1        0.1592
     23 C         140.8302  137.8255  161.9002 C.ar    1  UNL1        0.0820
     24 C         139.4365  138.2007  161.4917 C.ar    1  UNL1        0.0167
     25 C         139.1743  138.7191  160.1088 C.ar    1  UNL1        0.0028
     26 C         140.3057  138.8621  159.1343 C.ar    1  UNL1        0.0177
     27 C         140.0433  139.3805  157.7513 C.ar    1  UNL1        0.0024
     28 C         141.1747  139.5236  156.7769 C.ar    1  UNL1        0.0115
     29 C         142.5684  139.1483  157.1854 C.ar    1  UNL1        0.0592
     30 CL        143.6998  139.2914  156.2110 Cl      1  UNL1       -0.0822
     31 C         142.8307  138.6300  158.5684 C.ar    1  UNL1        0.0305
     32 C         141.6993  138.4869  159.5428 C.ar    1  UNL1        0.0818
     33 N         141.9616  137.9686  160.9257 N.ar    1  UNL1       -0.2477
@<TRIPOS>BOND
     1    19    20    1
     2    20    21    3
     3    21    18    1
     4    18     1    1
     5     1     2   ar
     6     2     9    1
     7     9    10    1
     8    10    11    1
     9    11    12    1
    10    12    13    1
    11    13    14    1
    12    13    15    1
    13     2     3   ar
    14     3     4   ar
    15     4     5    2
    16     4     6   ar
    17     6    22    1
    18    22    23    1
    19    23    24   ar
    20    24    25   ar
    21    25    26   ar
    22    26    27   ar
    23    27    28   ar
    24    28    29   ar
    25    29    30    1
    26    29    31   ar
    27    31    32   ar
    28    32    33   ar
    29     6     7   ar
    30     7     8    2
    31     7     1   ar
    32    15     9    1
    33    33    23   ar
    34    32    26   ar
    35    14    16    1
    36    14    17    1
@<TRIPOS>MOLECULE
*****
 33 36 0 0 0
SMALL
GASTEIGER

@<TRIPOS>ATOM
      1 N         141.7433  139.8965  160.0258 N.ar    1  UNL1       -0.2570
      2 C         143.1439  140.4267  159.9405 C.ar    1  UNL1        0.1213
      3 C         143.9439  140.2334  158.6865 C.ar    1  UNL1        0.0935
      4 C         143.3434  139.5099  157.5177 C.ar    1  UNL1        0.2674
      5 O         144.1435  139.3167  156.2637 O.2     1  UNL1       -0.2667
      6 N         141.9428  138.9797  157.6030 N.ar    1  UNL1       -0.2428
      7 C         141.1428  139.1730  158.8571 C.ar    1  UNL1        0.3357
      8 O         139.7422  138.6428  158.9423 O.2     1  UNL1       -0.2461
      9 N         143.7444  141.1501  161.1092 N.pl3   1  UNL1       -0.2930
     10 C         144.4992  140.3864  162.1567 C.3     1  UNL1        0.0922
     11 C         145.0997  141.1099  163.3254 C.3     1  UNL1        0.0229
     12 C         144.9455  142.5970  163.4468 C.3     1  UNL1        0.0190
     13 C         144.1907  143.3607  162.3994 C.3     1  UNL1        0.0709
     14 N         144.0365  144.8478  162.5207 N.3     1  UNL1       -0.3208
     15 C         143.5901  142.6372  161.2306 C.3     1  UNL1        0.1075
     16 H         143.4998  145.1997  161.7279 H       1  UNL1        0.1189
     17 H         144.9577  145.2856  162.5289 H       1  UNL1        0.1189
     18 C         140.9432  140.0897  161.2798 C.3     1  UNL1        0.1879
     19 C         141.1009  137.0003  164.5478 C.3     1  UNL1        0.0900
     20 C         141.0483  138.0301  163.4585 C.1     1  UNL1       -0.0881
     21 C         140.9958  139.0599  162.3692 C.1     1  UNL1       -0.0655
     22 C         141.3423  138.2563  156.4343 C.3     1  UNL1        0.1592
     23 C         141.6211  136.7963  156.2322 C.ar    1  UNL1        0.0820
     24 C         140.8156  136.0091  155.2415 C.ar    1  UNL1        0.0167
     25 C         141.0943  134.5491  155.0395 C.ar    1  UNL1        0.0028
     26 C         142.1786  133.8765  155.8281 C.ar    1  UNL1        0.0177
     27 C         142.4574  132.4164  155.6260 C.ar    1  UNL1        0.0024
     28 C         143.5416  131.7438  156.4145 C.ar    1  UNL1        0.0115
     29 C         144.3471  132.5311  157.4052 C.ar    1  UNL1        0.0592
     30 CL        145.4314  131.8584  158.1938 Cl      1  UNL1       -0.0822
     31 C         144.0683  133.9910  157.6073 C.ar    1  UNL1        0.0305
     32 C         142.9841  134.6637  156.8187 C.ar    1  UNL1        0.0818
     33 N         142.7053  136.1236  157.0208 N.ar    1  UNL1       -0.2477
@<TRIPOS>BOND
     1    19    20    1
     2    20    21    3
     3    21    18    1
     4    18     1    1
     5     1     2   ar
     6     2     9    1
     7     9    10    1
     8    10    11    1
     9    11    12    1
    10    12    13    1
    11    13    14    1
    12    13    15    1
    13     2     3   ar
    14     3     4   ar
    15     4     5    2
    16     4     6   ar
    17     6    22    1
    18    22    23    1
    19    23    24   ar
    20    24    25   ar
    21    25    26   ar
    22    26    27   ar
    23    27    28   ar
    24    28    29   ar
    25    29    30    1
    26    29    31   ar
    27    31    32   ar
    28    32    33   ar
    29     6     7   ar
    30     7     8    2
    31     7     1   ar
    32    15     9    1
    33    33    23   ar
    34    32    26   ar
    35    14    16    1
    36    14    17    1
@<TRIPOS>MOLECULE
*****
 33 36 0 0 0
SMALL
GASTEIGER

@<TRIPOS>ATOM
      1 N         141.8441  143.0660  165.5277 N.ar    1  UNL1       -0.2570
      2 C         140.4333  142.9207  166.0161 C.ar    1  UNL1        0.1213
      3 C         139.3050  143.5374  165.2438 C.ar    1  UNL1        0.0935
      4 C         139.5875  144.2994  163.9829 C.ar    1  UNL1        0.2674
      5 O         138.4592  144.9160  163.2105 O.2     1  UNL1       -0.2667
      6 N         140.9983  144.4446  163.4945 N.ar    1  UNL1       -0.2428
      7 C         142.1266  143.8279  164.2670 C.ar    1  UNL1        0.3357
      8 O         143.5374  143.9731  163.7785 O.2     1  UNL1       -0.2461
      9 N         140.1508  142.1588  167.2769 N.pl3   1  UNL1       -0.2930
     10 C         139.7328  140.7199  167.2060 C.3     1  UNL1        0.0922
     11 C         139.4503  139.9580  168.4668 C.3     1  UNL1        0.0229
     12 C         139.5857  140.6349  169.7985 C.3     1  UNL1        0.0190
     13 C         140.0037  142.0737  169.8695 C.3     1  UNL1        0.0709
     14 N         140.1391  142.7506  171.2012 N.3     1  UNL1       -0.3208
     15 C         140.2862  142.8357  168.6086 C.3     1  UNL1        0.1075
     16 H         140.4291  143.7187  171.0626 H       1  UNL1        0.1189
     17 H         140.8386  142.2630  171.7609 H       1  UNL1        0.1189
     18 C         142.9724  142.4493  166.3001 C.3     1  UNL1        0.1879
     19 C         143.5359  137.9847  166.2819 C.3     1  UNL1        0.0900
     20 C         143.3481  139.4729  166.2880 C.1     1  UNL1       -0.0881
     21 C         143.1603  140.9610  166.2940 C.1     1  UNL1       -0.0655
     22 C         141.2808  145.2065  162.2337 C.3     1  UNL1        0.1592
     23 C         141.3889  144.4793  160.9262 C.ar    1  UNL1        0.0820
     24 C         140.1655  144.2605  160.0863 C.ar    1  UNL1        0.0167
     25 C         140.2736  143.5334  158.7789 C.ar    1  UNL1        0.0028
     26 C         141.6051  143.0251  158.3112 C.ar    1  UNL1        0.0177
     27 C         141.7131  142.2979  157.0037 C.ar    1  UNL1        0.0024
     28 C         143.0446  141.7896  156.5360 C.ar    1  UNL1        0.0115
     29 C         144.2681  142.0084  157.3759 C.ar    1  UNL1        0.0592
     30 CL        145.5996  141.5001  156.9082 Cl      1  UNL1       -0.0822
     31 C         144.1600  142.7355  158.6834 C.ar    1  UNL1        0.0305
     32 C         142.8285  143.2439  159.1510 C.ar    1  UNL1        0.0818
     33 N         142.7204  143.9710  160.4585 N.ar    1  UNL1       -0.2477
@<TRIPOS>BOND
     1    19    20    1
     2    20    21    3
     3    21    18    1
     4    18     1    1
     5     1     2   ar
     6     2     9    1
     7     9    10    1
     8    10    11    1
     9    11    12    1
    10    12    13    1
    11    13    14    1
    12    13    15    1
    13     2     3   ar
    14     3     4   ar
    15     4     5    2
    16     4     6   ar
    17     6    22    1
    18    22    23    1
    19    23    24   ar
    20    24    25   ar
    21    25    26   ar
    22    26    27   ar
    23    27    28   ar
    24    28    29   ar
    25    29    30    1
    26    29    31   ar
    27    31    32   ar
    28    32    33   ar
    29     6     7   ar
    30     7     8    2
    31     7     1   ar
    32    15     9    1
    33    33    23   ar
    34    32    26   ar
    35    14    16    1
    36    14    17    1
@<TRIPOS>MOLECULE
*****
 33 36 0 0 0
SMALL
GASTEIGER

@<TRIPOS>ATOM
      1 N         140.8700  140.1305  164.9869 N.ar    1  UNL1       -0.2570
      2 C         141.7830  140.4308  166.1385 C.ar    1  UNL1        0.1213
      3 C         143.2584  140.1945  166.0073 C.ar    1  UNL1        0.0935
      4 C         143.8209  139.6579  164.7244 C.ar    1  UNL1        0.2674
      5 O         145.2963  139.4216  164.5932 O.2     1  UNL1       -0.2667
      6 N         142.9079  139.3576  163.5728 N.ar    1  UNL1       -0.2428
      7 C         141.4324  139.5939  163.7041 C.ar    1  UNL1        0.3357
      8 O         140.5194  139.2936  162.5524 O.2     1  UNL1       -0.2461
      9 N         141.2205  140.9674  167.4214 N.pl3   1  UNL1       -0.2930
     10 C         141.0001  142.4421  167.5848 C.3     1  UNL1        0.0922
     11 C         140.4376  142.9787  168.8676 C.3     1  UNL1        0.0229
     12 C         140.0957  142.0407  169.9871 C.3     1  UNL1        0.0190
     13 C         140.3161  140.5660  169.8237 C.3     1  UNL1        0.0709
     14 N         139.9742  139.6280  170.9431 N.3     1  UNL1       -0.3208
     15 C         140.8786  140.0293  168.5408 C.3     1  UNL1        0.1075
     16 H         140.1864  138.6709  170.6615 H       1  UNL1        0.1189
     17 H         138.9807  139.7060  171.1606 H       1  UNL1        0.1189
     18 C         139.3946  140.3667  165.1181 C.3     1  UNL1        0.1879
     19 C         136.8784  137.5688  167.5860 C.3     1  UNL1        0.0900
     20 C         137.7171  138.5014  166.7634 C.1     1  UNL1       -0.0881
     21 C         138.5558  139.4341  165.9408 C.1     1  UNL1       -0.0655
     22 C         143.4703  138.8210  162.2900 C.3     1  UNL1        0.1592
     23 C         143.7047  139.7429  161.1301 C.ar    1  UNL1        0.0820
     24 C         144.1057  141.1676  161.3736 C.ar    1  UNL1        0.0167
     25 C         144.3401  142.0894  160.2137 C.ar    1  UNL1        0.0028
     26 C         144.1733  141.5865  158.8104 C.ar    1  UNL1        0.0177
     27 C         144.4077  142.5084  157.6505 C.ar    1  UNL1        0.0024
     28 C         144.2409  142.0056  156.2472 C.ar    1  UNL1        0.0115
     29 C         143.8398  140.5808  156.0038 C.ar    1  UNL1        0.0592
     30 CL        143.6730  140.0779  154.6005 Cl      1  UNL1       -0.0822
     31 C         143.6055  139.6590  157.1636 C.ar    1  UNL1        0.0305
     32 C         143.7722  140.1618  158.5669 C.ar    1  UNL1        0.0818
     33 N         143.5379  139.2400  159.7268 N.ar    1  UNL1       -0.2477
@<TRIPOS>BOND
     1    19    20    1
     2    20    21    3
     3    21    18    1
     4    18     1    1
     5     1     2   ar
     6     2     9    1
     7     9    10    1
     8    10    11    1
     9    11    12    1
    10    12    13    1
    11    13    14    1
    12    13    15    1
    13     2     3   ar
    14     3     4   ar
    15     4     5    2
    16     4     6   ar
    17     6    22    1
    18    22    23    1
    19    23    24   ar
    20    24    25   ar
    21    25    26   ar
    22    26    27   ar
    23    27    28   ar
    24    28    29   ar
    25    29    30    1
    26    29    31   ar
    27    31    32   ar
    28    32    33   ar
    29     6     7   ar
    30     7     8    2
    31     7     1   ar
    32    15     9    1
    33    33    23   ar
    34    32    26   ar
    35    14    16    1
    36    14    17    1
@<TRIPOS>MOLECULE
*****
 33 36 0 0 0
SMALL
GASTEIGER

@<TRIPOS>ATOM
      1 N         143.0745  140.2120  165.6601 N.ar    1  UNL1       -0.2570
      2 C         142.7597  141.2505  166.6956 C.ar    1  UNL1        0.1213
      3 C         143.2382  142.6604  166.5135 C.ar    1  UNL1        0.0935
      4 C         144.0316  143.0318  165.2958 C.ar    1  UNL1        0.2674
      5 O         144.5101  144.4417  165.1137 O.2     1  UNL1       -0.2667
      6 N         144.3463  141.9933  164.2603 N.ar    1  UNL1       -0.2428
      7 C         143.8677  140.5833  164.4424 C.ar    1  UNL1        0.3357
      8 O         144.1825  139.5448  163.4068 O.2     1  UNL1       -0.2461
      9 N         141.9664  140.8792  167.9133 N.pl3   1  UNL1       -0.2930
     10 C         140.5122  140.5345  167.7847 C.3     1  UNL1        0.0922
     11 C         139.7189  140.1632  169.0024 C.3     1  UNL1        0.0229
     12 C         140.3797  140.1365  170.3487 C.3     1  UNL1        0.0190
     13 C         141.8339  140.4811  170.4773 C.3     1  UNL1        0.0709
     14 N         142.4948  140.4544  171.8236 N.3     1  UNL1       -0.3208
     15 C         142.6273  140.8524  169.2596 C.3     1  UNL1        0.1075
     16 H         143.4765  140.7133  171.7257 H       1  UNL1        0.1189
     17 H         142.4284  139.5153  172.2164 H       1  UNL1        0.1189
     18 C         142.5959  138.8021  165.8422 C.3     1  UNL1        0.1879
     19 C         138.8603  137.4068  163.7569 C.3     1  UNL1        0.0900
     20 C         140.1055  137.8719  164.4520 C.1     1  UNL1       -0.0881
     21 C         141.3507  138.3370  165.1471 C.1     1  UNL1       -0.0655
     22 C         145.1396  142.3646  163.0426 C.3     1  UNL1        0.1592
     23 C         144.4352  142.6869  161.7580 C.ar    1  UNL1        0.0820
     24 C         143.1100  143.3890  161.7851 C.ar    1  UNL1        0.0167
     25 C         142.4056  143.7113  160.5006 C.ar    1  UNL1        0.0028
     26 C         143.0265  143.3315  159.1890 C.ar    1  UNL1        0.0177
     27 C         142.3221  143.6538  157.9045 C.ar    1  UNL1        0.0024
     28 C         142.9430  143.2739  156.5929 C.ar    1  UNL1        0.0115
     29 C         144.2683  142.5718  156.5659 C.ar    1  UNL1        0.0592
     30 CL        144.8892  142.1920  155.2543 Cl      1  UNL1       -0.0822
     31 C         144.9726  142.2495  157.8504 C.ar    1  UNL1        0.0305
     32 C         144.3517  142.6294  159.1620 C.ar    1  UNL1        0.0818
     33 N         145.0561  142.3071  160.4465 N.ar    1  UNL1       -0.2477
@<TRIPOS>BOND
     1    19    20    1
     2    20    21    3
     3    21    18    1
     4    18     1    1
     5     1     2   ar
     6     2     9    1
     7     9    10    1
     8    10    11    1
     9    11    12    1
    10    12    13    1
    11    13    14    1
    12    13    15    1
    13     2     3   ar
    14     3     4   ar
    15     4     5    2
    16     4     6   ar
    17     6    22    1
    18    22    23    1
    19    23    24   ar
    20    24    25   ar
    21    25    26   ar
    22    26    27   ar
    23    27    28   ar
    24    28    29   ar
    25    29    30    1
    26    29    31   ar
    27    31    32   ar
    28    32    33   ar
    29     6     7   ar
    30     7     8    2
    31     7     1   ar
    32    15     9    1
    33    33    23   ar
    34    32    26   ar
    35    14    16    1
    36    14    17    1
