@<TRIPOS>MOLECULE
*****
 33 36 0 0 0
SMALL
GASTEIGER

@<TRIPOS>ATOM
      1 N         142.8609  141.2893  164.1922 N.3     1  UNL1       -0.2647
      2 C         142.2817  139.9079  164.2709 C.3     1  UNL1        0.1037
      3 C         141.6713  139.2801  163.0530 C.3     1  UNL1        0.1470
      4 C         141.0608  138.6523  161.8351 C.3     1  UNL1        0.1035
      5 N         141.0296  139.4059  160.5385 N.3     1  UNL1       -0.2673
      6 C         141.6088  140.7874  160.4599 C.3     1  UNL1        0.1035
      7 C         142.2192  141.4152  161.6778 C.3     1  UNL1        0.1470
      8 C         142.8296  142.0430  162.8956 C.3     1  UNL1        0.1037
      9 O         141.6400  140.0338  161.7565 O.3     1  UNL1       -0.3530
     10 C         143.4713  141.9172  165.4101 C.3     1  UNL1        0.0993
     11 C         140.9088  142.8317  168.9944 C.ar    1  UNL1        0.0684
     12 C         140.2989  142.8019  167.6243 C.ar    1  UNL1        0.0100
     13 C         141.1530  142.4971  166.4295 C.ar    1  UNL1       -0.0022
     14 C         142.6171  142.2220  166.6048 C.ar    1  UNL1       -0.0061
     15 C         143.2271  142.2518  167.9749 C.ar    1  UNL1       -0.0022
     16 C         142.3729  142.5567  169.1697 C.ar    1  UNL1        0.0100
     17 N         139.2004  143.4415  171.3838 N.1     1  UNL1       -0.1908
     18 C         140.0546  143.1366  170.1891 C.1     1  UNL1        0.1004
     19 C         140.4191  138.7782  159.3207 C.3     1  UNL1        0.0913
     20 C         139.1704  139.3571  158.7244 C.3     1  UNL1        0.1087
     21 N         137.9538  139.5562  159.5789 N.3     1  UNL1       -0.1780
     22 H         137.7337  138.6506  159.9934 H       1  UNL1        0.1488
     23 S         137.9801  140.5512  160.7010 S.O2    1  UNL1        0.0603
     24 O         138.2866  141.6462  159.7228 O.2     1  UNL1       -0.1530
     25 O         137.6736  139.4562  161.6792 O.2     1  UNL1       -0.1530
     26 C         138.0065  141.5462  161.8232 C.ar    1  UNL1        0.1220
     27 C         137.7076  141.1038  163.2250 C.ar    1  UNL1        0.0206
     28 C         137.7339  142.0987  164.3472 C.ar    1  UNL1        0.0116
     29 C         138.0591  143.5361  164.0676 C.ar    1  UNL1        0.0685
     30 C         138.3581  143.9785  162.6659 C.ar    1  UNL1        0.0116
     31 C         138.3317  142.9836  161.5437 C.ar    1  UNL1        0.0206
     32 C         138.0855  144.5311  165.1899 C.1     1  UNL1        0.1004
     33 N         138.1118  145.5260  166.3121 N.1     1  UNL1       -0.1908
@<TRIPOS>BOND
     1    17    18    3
     2    18    11    1
     3    11    12   ar
     4    12    13   ar
     5    13    14   ar
     6    14    10    1
     7    10     1    1
     8     1     2    1
     9     2     3    1
    10     3     4    1
    11     4     5    1
    12     5    19    1
    13    19    20    1
    14    20    21    1
    15    21    23    1
    16    23    24    2
    17    23    25    2
    18    23    26    1
    19    26    27   ar
    20    27    28   ar
    21    28    29   ar
    22    29    32    1
    23    32    33    3
    24    29    30   ar
    25    30    31   ar
    26     5     6    1
    27     6     7    1
    28     7     8    1
    29     7     9    1
    30    14    15   ar
    31    15    16   ar
    32    16    11   ar
    33     8     1    1
    34     9     3    1
    35    31    26   ar
    36    21    22    1
@<TRIPOS>MOLECULE
*****
 33 36 0 0 0
SMALL
GASTEIGER

@<TRIPOS>ATOM
      1 N         143.1152  142.0722  165.2609 N.3     1  UNL1       -0.2647
      2 C         142.0233  142.4126  164.2905 C.3     1  UNL1        0.1037
      3 C         142.1619  142.0392  162.8444 C.3     1  UNL1        0.1470
      4 C         142.3004  141.6658  161.3982 C.3     1  UNL1        0.1035
      5 N         143.5309  140.9519  160.9225 N.3     1  UNL1       -0.2673
      6 C         144.6229  140.6115  161.8930 C.3     1  UNL1        0.1035
      7 C         144.4843  140.9849  163.3392 C.3     1  UNL1        0.1470
      8 C         144.3457  141.3584  164.7853 C.3     1  UNL1        0.1037
      9 O         143.3924  141.3254  162.3687 O.3     1  UNL1       -0.3530
     10 C         142.9766  142.4456  166.7072 C.3     1  UNL1        0.0993
     11 C         139.6378  140.7041  169.1708 C.ar    1  UNL1        0.0684
     12 C         140.3478  139.8521  168.1608 C.ar    1  UNL1        0.0100
     13 C         141.4608  140.4326  167.3396 C.ar    1  UNL1       -0.0022
     14 C         141.8637  141.8651  167.5283 C.ar    1  UNL1       -0.0061
     15 C         141.1537  142.7171  168.5384 C.ar    1  UNL1       -0.0022
     16 C         140.0408  142.1365  169.3596 C.ar    1  UNL1        0.0100
     17 N         137.4120  139.5430  170.8132 N.1     1  UNL1       -0.1908
     18 C         138.5250  140.1235  169.9920 C.1     1  UNL1        0.1004
     19 C         143.6695  140.5785  159.4764 C.3     1  UNL1        0.0913
     20 C         143.0210  139.3287  158.9590 C.3     1  UNL1        0.1087
     21 N         142.9805  138.0961  159.8127 N.3     1  UNL1       -0.1780
     22 H         143.9271  137.9497  160.1635 H       1  UNL1        0.1488
     23 S         142.0648  138.0353  160.9992 S.O2    1  UNL1        0.0603
     24 O         140.9099  138.4321  160.1281 O.2     1  UNL1       -0.1530
     25 O         143.2197  137.6386  161.8702 O.2     1  UNL1       -0.1530
     26 C         141.1490  137.9745  162.1857 C.ar    1  UNL1        0.1220
     27 C         139.6638  137.9141  161.9845 C.ar    1  UNL1        0.0206
     28 C         138.7481  137.8533  163.1709 C.ar    1  UNL1        0.0116
     29 C         139.3176  137.8529  164.5586 C.ar    1  UNL1        0.0685
     30 C         140.8028  137.9133  164.7598 C.ar    1  UNL1        0.0116
     31 C         141.7185  137.9741  163.5734 C.ar    1  UNL1        0.0206
     32 C         138.4018  137.7921  165.7451 C.1     1  UNL1        0.1004
     33 N         137.4861  137.7313  166.9316 N.1     1  UNL1       -0.1908
@<TRIPOS>BOND
     1    17    18    3
     2    18    11    1
     3    11    12   ar
     4    12    13   ar
     5    13    14   ar
     6    14    10    1
     7    10     1    1
     8     1     2    1
     9     2     3    1
    10     3     4    1
    11     4     5    1
    12     5    19    1
    13    19    20    1
    14    20    21    1
    15    21    23    1
    16    23    24    2
    17    23    25    2
    18    23    26    1
    19    26    27   ar
    20    27    28   ar
    21    28    29   ar
    22    29    32    1
    23    32    33    3
    24    29    30   ar
    25    30    31   ar
    26     5     6    1
    27     6     7    1
    28     7     8    1
    29     7     9    1
    30    14    15   ar
    31    15    16   ar
    32    16    11   ar
    33     8     1    1
    34     9     3    1
    35    31    26   ar
    36    21    22    1
@<TRIPOS>MOLECULE
*****
 33 36 0 0 0
SMALL
GASTEIGER

@<TRIPOS>ATOM
      1 N         143.0468  141.5676  164.2458 N.3     1  UNL1       -0.2647
      2 C         143.0403  140.1001  163.9353 C.3     1  UNL1        0.1037
      3 C         142.4600  139.6098  162.6419 C.3     1  UNL1        0.1470
      4 C         141.8797  139.1194  161.3485 C.3     1  UNL1        0.1035
      5 N         141.3059  140.0965  160.3657 N.3     1  UNL1       -0.2673
      6 C         141.3124  141.5640  160.6762 C.3     1  UNL1        0.1035
      7 C         141.8927  142.0544  161.9696 C.3     1  UNL1        0.1470
      8 C         142.4731  142.5447  163.2629 C.3     1  UNL1        0.1037
      9 O         141.8862  140.5869  161.6591 O.3     1  UNL1       -0.3530
     10 C         143.6272  142.0580  165.5392 C.3     1  UNL1        0.0993
     11 C         140.9372  142.8284  169.0634 C.ar    1  UNL1        0.0684
     12 C         142.4022  142.5871  169.2768 C.ar    1  UNL1        0.0100
     13 C         143.2989  142.3303  168.1020 C.ar    1  UNL1       -0.0022
     14 C         142.7306  142.3148  166.7139 C.ar    1  UNL1       -0.0061
     15 C         141.2655  142.5562  166.5006 C.ar    1  UNL1       -0.0022
     16 C         140.3689  142.8130  167.6754 C.ar    1  UNL1        0.0100
     17 N         139.1440  143.3421  171.4130 N.1     1  UNL1       -0.1908
     18 C         140.0406  143.0852  170.2382 C.1     1  UNL1        0.1004
     19 C         140.7256  139.6062  159.0724 C.3     1  UNL1        0.0913
     20 C         139.3021  139.9231  158.7210 C.3     1  UNL1        0.1087
     21 N         138.1838  139.3822  159.5617 N.3     1  UNL1       -0.1780
     22 H         138.0584  138.4065  159.2924 H       1  UNL1        0.1488
     23 S         138.2900  139.4083  161.0577 S.O2    1  UNL1        0.0603
     24 O         138.6529  137.9529  161.0573 O.2     1  UNL1       -0.1530
     25 O         137.9270  140.8637  161.0581 O.2     1  UNL1       -0.1530
     26 C         138.3961  139.4344  162.5538 C.ar    1  UNL1        0.1220
     27 C         138.7392  138.1812  163.3033 C.ar    1  UNL1        0.0206
     28 C         138.8453  138.2073  164.7992 C.ar    1  UNL1        0.0116
     29 C         138.6083  139.4865  165.5457 C.ar    1  UNL1        0.0685
     30 C         138.2652  140.7397  164.7962 C.ar    1  UNL1        0.0116
     31 C         138.1591  140.7137  163.3002 C.ar    1  UNL1        0.0206
     32 C         138.7144  139.5126  167.0418 C.1     1  UNL1        0.1004
     33 N         138.8206  139.5388  168.5378 N.1     1  UNL1       -0.1908
@<TRIPOS>BOND
     1    17    18    3
     2    18    11    1
     3    11    12   ar
     4    12    13   ar
     5    13    14   ar
     6    14    10    1
     7    10     1    1
     8     1     2    1
     9     2     3    1
    10     3     4    1
    11     4     5    1
    12     5    19    1
    13    19    20    1
    14    20    21    1
    15    21    23    1
    16    23    24    2
    17    23    25    2
    18    23    26    1
    19    26    27   ar
    20    27    28   ar
    21    28    29   ar
    22    29    32    1
    23    32    33    3
    24    29    30   ar
    25    30    31   ar
    26     5     6    1
    27     6     7    1
    28     7     8    1
    29     7     9    1
    30    14    15   ar
    31    15    16   ar
    32    16    11   ar
    33     8     1    1
    34     9     3    1
    35    31    26   ar
    36    21    22    1
@<TRIPOS>MOLECULE
*****
 33 36 0 0 0
SMALL
GASTEIGER

@<TRIPOS>ATOM
      1 N         142.9129  138.4752  164.9942 N.3     1  UNL1       -0.2647
      2 C         143.6592  139.2353  163.9382 C.3     1  UNL1        0.1037
      3 C         143.1044  139.3280  162.5476 C.3     1  UNL1        0.1470
      4 C         142.5497  139.4206  161.1570 C.3     1  UNL1        0.1035
      5 N         141.2487  138.7531  160.8225 N.3     1  UNL1       -0.2673
      6 C         140.5025  137.9929  161.8787 C.3     1  UNL1        0.1035
      7 C         141.0572  137.9003  163.2692 C.3     1  UNL1        0.1470
      8 C         141.6120  137.8077  164.6597 C.3     1  UNL1        0.1037
      9 O         141.8035  138.6604  162.2132 O.3     1  UNL1       -0.3530
     10 C         143.4677  138.3826  166.3849 C.3     1  UNL1        0.0993
     11 C         141.5713  140.7276  169.7247 C.ar    1  UNL1        0.0684
     12 C         141.4467  141.2050  168.3082 C.ar    1  UNL1        0.0100
     13 C         142.0788  140.4233  167.1948 C.ar    1  UNL1       -0.0022
     14 C         142.8356  139.1643  167.4981 C.ar    1  UNL1       -0.0061
     15 C         142.9602  138.6869  168.9147 C.ar    1  UNL1       -0.0022
     16 C         142.3281  139.4685  170.0279 C.ar    1  UNL1        0.0100
     17 N         140.3071  142.2910  171.9512 N.1     1  UNL1       -0.1908
     18 C         140.9392  141.5093  170.8379 C.1     1  UNL1        0.1004
     19 C         140.6940  138.8457  159.4320 C.3     1  UNL1        0.0913
     20 C         139.2261  138.6470  159.1953 C.3     1  UNL1        0.1087
     21 N         138.3015  139.8281  159.1849 N.3     1  UNL1       -0.1780
     22 H         137.3561  139.4609  159.0765 H       1  UNL1        0.1488
     23 S         138.2702  140.7663  160.3547 S.O2    1  UNL1        0.0603
     24 O         138.8652  141.8482  159.5029 O.2     1  UNL1       -0.1530
     25 O         137.6753  139.6845  161.2065 O.2     1  UNL1       -0.1530
     26 C         138.2389  141.7047  161.5246 C.ar    1  UNL1        0.1220
     27 C         137.5583  141.2946  162.7969 C.ar    1  UNL1        0.0206
     28 C         137.5270  142.2328  163.9668 C.ar    1  UNL1        0.0116
     29 C         138.1762  143.5811  163.8644 C.ar    1  UNL1        0.0685
     30 C         138.8568  143.9912  162.5922 C.ar    1  UNL1        0.0116
     31 C         138.8881  143.0530  161.4223 C.ar    1  UNL1        0.0206
     32 C         138.1449  144.5194  165.0344 C.1     1  UNL1        0.1004
     33 N         138.1135  145.4577  166.2042 N.1     1  UNL1       -0.1908
@<TRIPOS>BOND
     1    17    18    3
     2    18    11    1
     3    11    12   ar
     4    12    13   ar
     5    13    14   ar
     6    14    10    1
     7    10     1    1
     8     1     2    1
     9     2     3    1
    10     3     4    1
    11     4     5    1
    12     5    19    1
    13    19    20    1
    14    20    21    1
    15    21    23    1
    16    23    24    2
    17    23    25    2
    18    23    26    1
    19    26    27   ar
    20    27    28   ar
    21    28    29   ar
    22    29    32    1
    23    32    33    3
    24    29    30   ar
    25    30    31   ar
    26     5     6    1
    27     6     7    1
    28     7     8    1
    29     7     9    1
    30    14    15   ar
    31    15    16   ar
    32    16    11   ar
    33     8     1    1
    34     9     3    1
    35    31    26   ar
    36    21    22    1
@<TRIPOS>MOLECULE
*****
 33 36 0 0 0
SMALL
GASTEIGER

@<TRIPOS>ATOM
      1 N         143.1125  143.0378  164.5188 N.3     1  UNL1       -0.2647
      2 C         143.2787  141.8932  163.5637 C.3     1  UNL1        0.1037
      3 C         142.7613  142.0062  162.1604 C.3     1  UNL1        0.1470
      4 C         142.2438  142.1192  160.7569 C.3     1  UNL1        0.1035
      5 N         141.5602  143.3768  160.3086 N.3     1  UNL1       -0.2673
      6 C         141.3940  144.5215  161.2638 C.3     1  UNL1        0.1035
      7 C         141.9114  144.4085  162.6671 C.3     1  UNL1        0.1470
      8 C         142.4288  144.2954  164.0705 C.3     1  UNL1        0.1037
      9 O         142.0776  143.2639  161.7121 O.3     1  UNL1       -0.3530
     10 C         143.6300  142.9248  165.9222 C.3     1  UNL1        0.0993
     11 C         141.1455  140.8986  169.0800 C.ar    1  UNL1        0.0684
     12 C         142.5128  141.4145  169.4181 C.ar    1  UNL1        0.0100
     13 C         143.3410  142.0899  168.3654 C.ar    1  UNL1       -0.0022
     14 C         142.8018  142.2494  166.9748 C.ar    1  UNL1       -0.0061
     15 C         141.4345  141.7335  166.6368 C.ar    1  UNL1       -0.0022
     16 C         140.6063  141.0581  167.6894 C.ar    1  UNL1        0.0100
     17 N         139.4892  139.5478  171.1853 N.1     1  UNL1       -0.1908
     18 C         140.3173  140.2232  170.1326 C.1     1  UNL1        0.1004
     19 C         141.0427  143.4899  158.9053 C.3     1  UNL1        0.0913
     20 C         139.7595  142.8140  158.5223 C.3     1  UNL1        0.1087
     21 N         138.5411  142.9754  159.3822 N.3     1  UNL1       -0.1780
     22 H         137.7428  142.6801  158.8201 H       1  UNL1        0.1488
     23 S         138.4438  142.2462  160.6894 S.O2    1  UNL1        0.0603
     24 O         138.8300  140.9684  160.0054 O.2     1  UNL1       -0.1530
     25 O         138.0575  143.5241  161.3734 O.2     1  UNL1       -0.1530
     26 C         138.3464  141.5171  161.9967 C.ar    1  UNL1        0.1220
     27 C         138.1279  142.2826  163.2680 C.ar    1  UNL1        0.0206
     28 C         138.0305  141.5535  164.5752 C.ar    1  UNL1        0.0116
     29 C         138.1516  140.0589  164.6111 C.ar    1  UNL1        0.0685
     30 C         138.3701  139.2933  163.3398 C.ar    1  UNL1        0.0116
     31 C         138.4675  140.0224  162.0326 C.ar    1  UNL1        0.0206
     32 C         138.0542  139.3297  165.9184 C.1     1  UNL1        0.1004
     33 N         137.9568  138.6006  167.2256 N.1     1  UNL1       -0.1908
@<TRIPOS>BOND
     1    17    18    3
     2    18    11    1
     3    11    12   ar
     4    12    13   ar
     5    13    14   ar
     6    14    10    1
     7    10     1    1
     8     1     2    1
     9     2     3    1
    10     3     4    1
    11     4     5    1
    12     5    19    1
    13    19    20    1
    14    20    21    1
    15    21    23    1
    16    23    24    2
    17    23    25    2
    18    23    26    1
    19    26    27   ar
    20    27    28   ar
    21    28    29   ar
    22    29    32    1
    23    32    33    3
    24    29    30   ar
    25    30    31   ar
    26     5     6    1
    27     6     7    1
    28     7     8    1
    29     7     9    1
    30    14    15   ar
    31    15    16   ar
    32    16    11   ar
    33     8     1    1
    34     9     3    1
    35    31    26   ar
    36    21    22    1
@<TRIPOS>MOLECULE
*****
 33 36 0 0 0
SMALL
GASTEIGER

@<TRIPOS>ATOM
      1 N         138.8223  139.0238  162.8295 N.3     1  UNL1       -0.2647
      2 C         139.5095  138.6100  161.5620 C.3     1  UNL1        0.1037
      3 C         139.4896  139.5171  160.3675 C.3     1  UNL1        0.1470
      4 C         139.4697  140.4242  159.1730 C.3     1  UNL1        0.1035
      5 N         138.7625  141.7450  159.2459 N.3     1  UNL1       -0.2673
      6 C         138.0752  142.1587  160.5135 C.3     1  UNL1        0.1035
      7 C         138.0952  141.2517  161.7079 C.3     1  UNL1        0.1470
      8 C         138.1151  140.3446  162.9024 C.3     1  UNL1        0.1037
      9 O         138.7824  140.8379  160.4405 O.3     1  UNL1       -0.3530
     10 C         138.8422  138.1168  164.0240 C.3     1  UNL1        0.0993
     11 C         139.4238  139.8331  168.1430 C.ar    1  UNL1        0.0684
     12 C         138.1173  139.1956  167.7738 C.ar    1  UNL1        0.0100
     13 C         137.9233  138.6235  166.4007 C.ar    1  UNL1       -0.0022
     14 C         139.0361  138.6889  165.3970 C.ar    1  UNL1       -0.0061
     15 C         140.3427  139.3264  165.7663 C.ar    1  UNL1       -0.0022
     16 C         140.5366  139.8985  167.1392 C.ar    1  UNL1        0.0100
     17 N         139.8115  140.9774  170.8890 N.1     1  UNL1       -0.1908
     18 C         139.6177  140.4052  169.5159 C.1     1  UNL1        0.1004
     19 C         138.7425  142.6520  158.0515 C.3     1  UNL1        0.0913
     20 C         139.7634  143.7434  157.9213 C.3     1  UNL1        0.1087
     21 N         139.8106  144.8507  158.9320 N.3     1  UNL1       -0.1780
     22 H         138.8609  144.9673  159.2855 H       1  UNL1        0.1488
     23 S         140.7072  144.7358  160.1289 S.O2    1  UNL1        0.0603
     24 O         139.7557  145.5810  160.9228 O.2     1  UNL1       -0.1530
     25 O         141.6587  143.8906  159.3351 O.2     1  UNL1       -0.1530
     26 C         141.6039  144.6209  161.3260 C.ar    1  UNL1        0.1220
     27 C         141.2454  145.3235  162.6018 C.ar    1  UNL1        0.0206
     28 C         142.1420  145.2086  163.7988 C.ar    1  UNL1        0.0116
     29 C         143.3972  144.3912  163.7199 C.ar    1  UNL1        0.0685
     30 C         143.7558  143.6887  162.4440 C.ar    1  UNL1        0.0116
     31 C         142.8591  143.8036  161.2470 C.ar    1  UNL1        0.0206
     32 C         144.2940  144.2763  164.9169 C.1     1  UNL1        0.1004
     33 N         145.1907  144.1614  166.1138 N.1     1  UNL1       -0.1908
@<TRIPOS>BOND
     1    17    18    3
     2    18    11    1
     3    11    12   ar
     4    12    13   ar
     5    13    14   ar
     6    14    10    1
     7    10     1    1
     8     1     2    1
     9     2     3    1
    10     3     4    1
    11     4     5    1
    12     5    19    1
    13    19    20    1
    14    20    21    1
    15    21    23    1
    16    23    24    2
    17    23    25    2
    18    23    26    1
    19    26    27   ar
    20    27    28   ar
    21    28    29   ar
    22    29    32    1
    23    32    33    3
    24    29    30   ar
    25    30    31   ar
    26     5     6    1
    27     6     7    1
    28     7     8    1
    29     7     9    1
    30    14    15   ar
    31    15    16   ar
    32    16    11   ar
    33     8     1    1
    34     9     3    1
    35    31    26   ar
    36    21    22    1
@<TRIPOS>MOLECULE
*****
 33 36 0 0 0
SMALL
GASTEIGER

@<TRIPOS>ATOM
      1 N         140.0305  139.4568  163.9558 N.3     1  UNL1       -0.2647
      2 C         138.8032  140.3190  163.9763 C.3     1  UNL1        0.1037
      3 C         138.3971  141.0749  162.7461 C.3     1  UNL1        0.1470
      4 C         137.9909  141.8310  161.5158 C.3     1  UNL1        0.1035
      5 N         138.8120  141.7247  160.2650 N.3     1  UNL1       -0.2673
      6 C         140.0394  140.8625  160.2445 C.3     1  UNL1        0.1035
      7 C         140.4455  140.1066  161.4747 C.3     1  UNL1        0.1470
      8 C         140.8516  139.3506  162.7050 C.3     1  UNL1        0.1037
      9 O         139.2182  140.9687  161.4953 O.3     1  UNL1       -0.3530
     10 C         140.4367  138.7008  165.1860 C.3     1  UNL1        0.0993
     11 C         140.5616  140.7880  169.1708 C.ar    1  UNL1        0.0684
     12 C         139.2731  140.2071  168.6685 C.ar    1  UNL1        0.0100
     13 C         139.2314  139.5113  167.3402 C.ar    1  UNL1       -0.0022
     14 C         140.4783  139.3965  166.5143 C.ar    1  UNL1       -0.0061
     15 C         141.7668  139.9775  167.0166 C.ar    1  UNL1       -0.0022
     16 C         141.8084  140.6732  168.3448 C.ar    1  UNL1        0.0100
     17 N         140.6449  142.1795  171.8273 N.1     1  UNL1       -0.1908
     18 C         140.6032  141.4837  170.4990 C.1     1  UNL1        0.1004
     19 C         138.4059  142.4807  159.0347 C.3     1  UNL1        0.0913
     20 C         139.3768  143.4130  158.3726 C.3     1  UNL1        0.1087
     21 N         139.8096  144.6666  159.0733 N.3     1  UNL1       -0.1780
     22 H         138.9604  145.1377  159.3854 H       1  UNL1        0.1488
     23 S         140.7211  144.5850  160.2618 S.O2    1  UNL1        0.0603
     24 O         141.8548  144.1849  159.3648 O.2     1  UNL1       -0.1530
     25 O         139.5875  144.9851  161.1588 O.2     1  UNL1       -0.1530
     26 C         141.6327  144.5034  161.4503 C.ar    1  UNL1        0.1220
     27 C         142.8935  143.6943  161.3743 C.ar    1  UNL1        0.0206
     28 C         143.8050  143.6126  162.5627 C.ar    1  UNL1        0.0116
     29 C         143.4557  144.3401  163.8271 C.ar    1  UNL1        0.0685
     30 C         142.1949  145.1491  163.9031 C.ar    1  UNL1        0.0116
     31 C         141.2834  145.2308  162.7147 C.ar    1  UNL1        0.0206
     32 C         144.3673  144.2584  165.0157 C.1     1  UNL1        0.1004
     33 N         145.2787  144.1768  166.2041 N.1     1  UNL1       -0.1908
@<TRIPOS>BOND
     1    17    18    3
     2    18    11    1
     3    11    12   ar
     4    12    13   ar
     5    13    14   ar
     6    14    10    1
     7    10     1    1
     8     1     2    1
     9     2     3    1
    10     3     4    1
    11     4     5    1
    12     5    19    1
    13    19    20    1
    14    20    21    1
    15    21    23    1
    16    23    24    2
    17    23    25    2
    18    23    26    1
    19    26    27   ar
    20    27    28   ar
    21    28    29   ar
    22    29    32    1
    23    32    33    3
    24    29    30   ar
    25    30    31   ar
    26     5     6    1
    27     6     7    1
    28     7     8    1
    29     7     9    1
    30    14    15   ar
    31    15    16   ar
    32    16    11   ar
    33     8     1    1
    34     9     3    1
    35    31    26   ar
    36    21    22    1
@<TRIPOS>MOLECULE
*****
 33 36 0 0 0
SMALL
GASTEIGER

@<TRIPOS>ATOM
      1 N         138.5675  139.3496  165.5379 N.3     1  UNL1       -0.2647
      2 C         138.9533  138.2744  164.5658 C.3     1  UNL1        0.1037
      3 C         138.7646  138.4914  163.0937 C.3     1  UNL1        0.1470
      4 C         138.5758  138.7083  161.6215 C.3     1  UNL1        0.1035
      5 N         138.0012  140.0005  161.1214 N.3     1  UNL1       -0.2673
      6 C         137.6153  141.0758  162.0936 C.3     1  UNL1        0.1035
      7 C         137.8041  140.8588  163.5657 C.3     1  UNL1        0.1470
      8 C         137.9929  140.6418  165.0379 C.3     1  UNL1        0.1037
      9 O         138.1900  139.7836  162.5936 O.3     1  UNL1       -0.3530
     10 C         138.7562  139.1326  167.0102 C.3     1  UNL1        0.0993
     11 C         141.3690  141.9272  169.3795 C.ar    1  UNL1        0.0684
     12 C         140.1494  141.3242  170.0112 C.ar    1  UNL1        0.0100
     13 C         139.2785  140.3926  169.2214 C.ar    1  UNL1       -0.0022
     14 C         139.6271  140.0641  167.7999 C.ar    1  UNL1       -0.0061
     15 C         140.8467  140.6672  167.1683 C.ar    1  UNL1       -0.0022
     16 C         141.7176  141.5987  167.9580 C.ar    1  UNL1        0.0100
     17 N         143.1108  143.7902  170.9592 N.1     1  UNL1       -0.1908
     18 C         142.2398  142.8587  170.1693 C.1     1  UNL1        0.1004
     19 C         137.8124  140.2175  159.6493 C.3     1  UNL1        0.0913
     20 C         138.8589  140.9449  158.8581 C.3     1  UNL1        0.1087
     21 N         139.2073  142.3630  159.2008 N.3     1  UNL1       -0.1780
     22 H         138.3340  142.8301  159.4450 H       1  UNL1        0.1488
     23 S         140.1765  142.6503  160.3091 S.O2    1  UNL1        0.0603
     24 O         139.3737  143.8561  160.6985 O.2     1  UNL1       -0.1530
     25 O         140.9792  141.4446  159.9196 O.2     1  UNL1       -0.1530
     26 C         141.1457  142.9376  161.4173 C.ar    1  UNL1        0.1220
     27 C         142.0492  144.1319  161.3327 C.ar    1  UNL1        0.0206
     28 C         143.0184  144.4192  162.4408 C.ar    1  UNL1        0.0116
     29 C         143.0840  143.5122  163.6337 C.ar    1  UNL1        0.0685
     30 C         142.1805  142.3178  163.7183 C.ar    1  UNL1        0.0116
     31 C         141.2113  142.0305  162.6101 C.ar    1  UNL1        0.0206
     32 C         144.0533  143.7994  164.7419 C.1     1  UNL1        0.1004
     33 N         145.0224  144.0867  165.8501 N.1     1  UNL1       -0.1908
@<TRIPOS>BOND
     1    17    18    3
     2    18    11    1
     3    11    12   ar
     4    12    13   ar
     5    13    14   ar
     6    14    10    1
     7    10     1    1
     8     1     2    1
     9     2     3    1
    10     3     4    1
    11     4     5    1
    12     5    19    1
    13    19    20    1
    14    20    21    1
    15    21    23    1
    16    23    24    2
    17    23    25    2
    18    23    26    1
    19    26    27   ar
    20    27    28   ar
    21    28    29   ar
    22    29    32    1
    23    32    33    3
    24    29    30   ar
    25    30    31   ar
    26     5     6    1
    27     6     7    1
    28     7     8    1
    29     7     9    1
    30    14    15   ar
    31    15    16   ar
    32    16    11   ar
    33     8     1    1
    34     9     3    1
    35    31    26   ar
    36    21    22    1
@<TRIPOS>MOLECULE
*****
 33 36 0 0 0
SMALL
GASTEIGER

@<TRIPOS>ATOM
      1 N         143.0282  138.6524  165.4681 N.3     1  UNL1       -0.2647
      2 C         144.1556  139.1045  164.5881 C.3     1  UNL1        0.1037
      3 C         144.0576  138.9413  163.1002 C.3     1  UNL1        0.1470
      4 C         143.9595  138.7780  161.6123 C.3     1  UNL1        0.1035
      5 N         142.7341  138.1626  161.0045 N.3     1  UNL1       -0.2673
      6 C         141.6066  137.7105  161.8846 C.3     1  UNL1        0.1035
      7 C         141.7046  137.8737  163.3724 C.3     1  UNL1        0.1470
      8 C         141.8027  138.0370  164.8602 C.3     1  UNL1        0.1037
      9 O         142.8321  138.3259  162.4924 O.3     1  UNL1       -0.3530
     10 C         143.1262  138.8156  166.9560 C.3     1  UNL1        0.0993
     11 C         141.2469  142.3814  168.9569 C.ar    1  UNL1        0.0684
     12 C         141.4786  141.1203  169.7352 C.ar    1  UNL1        0.0100
     13 C         142.1051  139.9317  169.0683 C.ar    1  UNL1       -0.0022
     14 C         142.4998  140.0042  167.6229 C.ar    1  UNL1       -0.0061
     15 C         142.2680  141.2654  166.8446 C.ar    1  UNL1       -0.0022
     16 C         141.6416  142.4540  167.5116 C.ar    1  UNL1        0.0100
     17 N         139.9941  144.7586  170.2909 N.1     1  UNL1       -0.1908
     18 C         140.6205  143.5700  169.6239 C.1     1  UNL1        0.1004
     19 C         142.6360  137.9994  159.5166 C.3     1  UNL1        0.0913
     20 C         141.6657  138.8327  158.7330 C.3     1  UNL1        0.1087
     21 N         141.7795  140.3283  158.7468 N.3     1  UNL1       -0.1780
     22 H         141.2893  140.6686  157.9196 H       1  UNL1        0.1488
     23 S         141.2534  141.1097  159.9141 S.O2    1  UNL1        0.0603
     24 O         142.5999  141.7453  160.0955 O.2     1  UNL1       -0.1530
     25 O         139.9070  140.4742  159.7327 O.2     1  UNL1       -0.1530
     26 C         140.7273  141.8912  161.0814 C.ar    1  UNL1        0.1220
     27 C         141.2137  141.5878  162.4675 C.ar    1  UNL1        0.0206
     28 C         140.6876  142.3692  163.6348 C.ar    1  UNL1        0.0116
     29 C         139.6750  143.4539  163.4160 C.ar    1  UNL1        0.0685
     30 C         139.1885  143.7573  162.0299 C.ar    1  UNL1        0.0116
     31 C         139.7146  142.9759  160.8626 C.ar    1  UNL1        0.0206
     32 C         139.1488  144.2354  164.5833 C.1     1  UNL1        0.1004
     33 N         138.6227  145.0168  165.7506 N.1     1  UNL1       -0.1908
@<TRIPOS>BOND
     1    17    18    3
     2    18    11    1
     3    11    12   ar
     4    12    13   ar
     5    13    14   ar
     6    14    10    1
     7    10     1    1
     8     1     2    1
     9     2     3    1
    10     3     4    1
    11     4     5    1
    12     5    19    1
    13    19    20    1
    14    20    21    1
    15    21    23    1
    16    23    24    2
    17    23    25    2
    18    23    26    1
    19    26    27   ar
    20    27    28   ar
    21    28    29   ar
    22    29    32    1
    23    32    33    3
    24    29    30   ar
    25    30    31   ar
    26     5     6    1
    27     6     7    1
    28     7     8    1
    29     7     9    1
    30    14    15   ar
    31    15    16   ar
    32    16    11   ar
    33     8     1    1
    34     9     3    1
    35    31    26   ar
    36    21    22    1
