@<TRIPOS>MOLECULE
*****
 34 37 0 0 0
SMALL
GASTEIGER

@<TRIPOS>ATOM
      1 C         141.5131  140.7975  167.6828 C.2     1  UNL1       -0.0063
      2 C         142.3687  139.6253  168.0619 C.2     1  UNL1       -0.0414
      3 C         143.0785  138.8399  166.9992 C.3     1  UNL1        0.0394
      4 C         143.9341  137.6676  167.3783 C.3     1  UNL1        0.0767
      5 N         144.0799  137.2807  168.8202 N.3     1  UNL1       -0.2683
      6 C         143.3702  138.0661  169.8829 C.3     1  UNL1        0.0767
      7 C         142.5146  139.2384  169.5038 C.3     1  UNL1        0.0394
      8 C         141.0755  141.9582  163.3571 C.ar    1  UNL1        0.0536
      9 C         140.1232  140.9744  163.9698 C.ar    1  UNL1        0.0045
     10 C         140.2691  140.5876  165.4116 C.ar    1  UNL1        0.0001
     11 C         141.3672  141.1844  166.2409 C.ar    1  UNL1       -0.0006
     12 C         142.3195  142.1682  165.6283 C.ar    1  UNL1        0.0001
     13 C         142.1737  142.5550  164.1864 C.ar    1  UNL1        0.0045
     14 N         140.0349  143.4862  161.5317 N.am    1  UNL1       -0.2761
     15 C         140.9296  142.3451  161.9153 C.2     1  UNL1        0.2490
     16 O         141.6785  141.5908  160.8569 O.2     1  UNL1       -0.2699
     17 C         140.7541  144.9539  159.5121 C.3     1  UNL1        0.0233
     18 C         139.8890  143.8731  160.0899 C.3     1  UNL1        0.0938
     19 C         139.2859  144.2406  162.5902 C.3     1  UNL1        0.0938
     20 C         137.8662  143.8760  162.9084 C.3     1  UNL1        0.0233
     21 C         140.8034  141.5829  168.7456 C.ar    1  UNL1        0.0186
     22 C         141.2121  142.9975  169.0317 C.ar    1  UNL1        0.0031
     23 C         140.5023  143.7828  170.0945 C.ar    1  UNL1        0.0207
     24 C         139.3839  143.1536  170.8711 C.ar    1  UNL1        0.0989
     25 N         138.9752  141.7390  170.5850 N.ar    1  UNL1       -0.2423
     26 C         139.6850  140.9536  169.5222 C.ar    1  UNL1        0.0988
     27 C         144.9356  136.1084  169.1993 C.3     1  UNL1        0.0992
     28 C         145.3700  135.9264  170.6234 C.ar    1  UNL1       -0.0060
     29 C         146.6102  136.6070  171.1220 C.ar    1  UNL1       -0.0006
     30 C         147.0446  136.4250  172.5461 C.ar    1  UNL1        0.0294
     31 C         146.2389  135.5622  173.4716 C.ar    1  UNL1        0.1401
     32 F         146.6733  135.3802  174.8957 F       1  UNL1       -0.2042
     33 C         144.9987  134.8816  172.9730 C.ar    1  UNL1        0.0294
     34 C         144.5643  135.0637  171.5488 C.ar    1  UNL1       -0.0006
@<TRIPOS>BOND
     1    17    18    1
     2    18    14    1
     3    14    19    1
     4    19    20    1
     5    14    15   am
     6    15    16    2
     7    15     8    1
     8     8     9   ar
     9     9    10   ar
    10    10    11   ar
    11    11     1    1
    12     1     2    2
    13     2     3    1
    14     3     4    1
    15     4     5    1
    16     5    27    1
    17    27    28    1
    18    28    29   ar
    19    29    30   ar
    20    30    31   ar
    21    31    32    1
    22    31    33   ar
    23    33    34   ar
    24     5     6    1
    25     6     7    1
    26     1    21    1
    27    21    22   ar
    28    22    23   ar
    29    23    24   ar
    30    24    25   ar
    31    25    26   ar
    32    11    12   ar
    33    12    13   ar
    34    13     8   ar
    35     7     2    1
    36    26    21   ar
    37    34    28   ar
@<TRIPOS>MOLECULE
*****
 34 37 0 0 0
SMALL
GASTEIGER

@<TRIPOS>ATOM
      1 C         141.7070  142.0560  162.0062 C.2     1  UNL1       -0.0063
      2 C         142.2850  141.5713  160.7097 C.2     1  UNL1       -0.0414
      3 C         143.1742  140.3633  160.6899 C.3     1  UNL1        0.0394
      4 C         143.7522  139.8786  159.3934 C.3     1  UNL1        0.0767
      5 N         143.4411  140.6019  158.1166 N.3     1  UNL1       -0.2683
      6 C         142.5521  141.8098  158.1363 C.3     1  UNL1        0.0767
      7 C         141.9740  142.2945  159.4329 C.3     1  UNL1        0.0394
      8 C         142.6402  139.8862  165.8365 C.ar    1  UNL1        0.0536
      9 C         143.4530  141.0809  165.4341 C.ar    1  UNL1        0.0045
     10 C         143.1419  141.8042  164.1573 C.ar    1  UNL1        0.0001
     11 C         142.0181  141.3327  163.2829 C.ar    1  UNL1       -0.0006
     12 C         141.2052  140.1380  163.6853 C.ar    1  UNL1        0.0001
     13 C         141.5163  139.4148  164.9621 C.ar    1  UNL1        0.0045
     14 N         142.2743  139.5683  168.3889 N.am    1  UNL1       -0.2761
     15 C         142.9512  139.1630  167.1133 C.2     1  UNL1        0.2490
     16 O         143.9392  138.0344  167.1144 O.2     1  UNL1       -0.2699
     17 C         143.0519  139.6119  170.8676 C.3     1  UNL1        0.0233
     18 C         142.5853  138.8451  169.6657 C.3     1  UNL1        0.0938
     19 C         141.2862  140.6970  168.3879 C.3     1  UNL1        0.0938
     20 C         139.8172  140.4077  168.2974 C.3     1  UNL1        0.0233
     21 C         140.8179  143.2639  162.0259 C.ar    1  UNL1        0.0186
     22 C         141.4142  144.6316  162.1799 C.ar    1  UNL1        0.0031
     23 C         140.5251  145.8396  162.1996 C.ar    1  UNL1        0.0207
     24 C         139.0397  145.6797  162.0653 C.ar    1  UNL1        0.0989
     25 N         138.4434  144.3120  161.9113 N.ar    1  UNL1       -0.2423
     26 C         139.3325  143.1041  161.8916 C.ar    1  UNL1        0.0988
     27 C         144.0192  140.1171  156.8201 C.3     1  UNL1        0.0992
     28 C         145.1528  140.8617  156.1794 C.ar    1  UNL1       -0.0060
     29 C         145.4738  140.6379  154.7314 C.ar    1  UNL1       -0.0006
     30 C         146.6075  141.3825  154.0907 C.ar    1  UNL1        0.0294
     31 C         147.4201  142.3509  154.8981 C.ar    1  UNL1        0.1401
     32 F         148.5537  143.0955  154.2575 F       1  UNL1       -0.2042
     33 C         147.0991  142.5747  156.3462 C.ar    1  UNL1        0.0294
     34 C         145.9654  141.8301  156.9868 C.ar    1  UNL1       -0.0006
@<TRIPOS>BOND
     1    17    18    1
     2    18    14    1
     3    14    19    1
     4    19    20    1
     5    14    15   am
     6    15    16    2
     7    15     8    1
     8     8     9   ar
     9     9    10   ar
    10    10    11   ar
    11    11     1    1
    12     1     2    2
    13     2     3    1
    14     3     4    1
    15     4     5    1
    16     5    27    1
    17    27    28    1
    18    28    29   ar
    19    29    30   ar
    20    30    31   ar
    21    31    32    1
    22    31    33   ar
    23    33    34   ar
    24     5     6    1
    25     6     7    1
    26     1    21    1
    27    21    22   ar
    28    22    23   ar
    29    23    24   ar
    30    24    25   ar
    31    25    26   ar
    32    11    12   ar
    33    12    13   ar
    34    13     8   ar
    35     7     2    1
    36    26    21   ar
    37    34    28   ar
@<TRIPOS>MOLECULE
*****
 34 37 0 0 0
SMALL
GASTEIGER

@<TRIPOS>ATOM
      1 C         141.4041  141.3656  158.9817 C.2     1  UNL1       -0.0063
      2 C         142.0378  140.2413  158.2173 C.2     1  UNL1       -0.0414
      3 C         142.0382  138.8536  158.7869 C.3     1  UNL1        0.0394
      4 C         142.6719  137.7293  158.0225 C.3     1  UNL1        0.0767
      5 N         143.3053  137.9926  156.6885 N.3     1  UNL1       -0.2683
      6 C         143.3049  139.3802  156.1189 C.3     1  UNL1        0.0767
      7 C         142.6712  140.5046  156.8833 C.3     1  UNL1        0.0394
      8 C         139.5040  140.5756  162.9836 C.ar    1  UNL1        0.0536
      9 C         138.6792  140.4972  161.7332 C.ar    1  UNL1        0.0045
     10 C         139.3126  140.7605  160.3993 C.ar    1  UNL1        0.0001
     11 C         140.7707  141.1023  160.3157 C.ar    1  UNL1       -0.0006
     12 C         141.5955  141.1807  161.5661 C.ar    1  UNL1        0.0001
     13 C         140.9621  140.9174  162.9001 C.ar    1  UNL1        0.0045
     14 N         138.8309  138.9170  164.8667 N.am    1  UNL1       -0.2761
     15 C         138.8706  140.3123  164.3176 C.2     1  UNL1        0.2490
     16 O         138.2770  141.4443  165.1026 O.2     1  UNL1       -0.2699
     17 C         137.7433  137.2686  166.5549 C.3     1  UNL1        0.0233
     18 C         138.1975  138.6537  166.2007 C.3     1  UNL1        0.0938
     19 C         139.4245  137.7849  164.0817 C.3     1  UNL1        0.0938
     20 C         140.8165  137.3132  164.3814 C.3     1  UNL1        0.0233
     21 C         141.4037  142.7532  158.4121 C.ar    1  UNL1        0.0186
     22 C         140.2625  143.2109  157.5529 C.ar    1  UNL1        0.0031
     23 C         140.2622  144.5986  156.9833 C.ar    1  UNL1        0.0207
     24 C         141.4030  145.5285  157.2729 C.ar    1  UNL1        0.0989
     25 N         142.5442  145.0707  158.1320 N.ar    1  UNL1       -0.2423
     26 C         142.5445  143.6831  158.7016 C.ar    1  UNL1        0.0988
     27 C         143.9390  136.8683  155.9241 C.3     1  UNL1        0.0992
     28 C         143.2280  135.5537  155.7964 C.ar    1  UNL1       -0.0060
     29 C         142.1743  135.3701  154.7447 C.ar    1  UNL1       -0.0006
     30 C         141.4632  134.0556  154.6170 C.ar    1  UNL1        0.0294
     31 C         141.8058  132.9246  155.5409 C.ar    1  UNL1        0.1401
     32 F         141.0948  131.6101  155.4131 F       1  UNL1       -0.2042
     33 C         142.8595  133.1082  156.5926 C.ar    1  UNL1        0.0294
     34 C         143.5706  134.4229  156.7203 C.ar    1  UNL1       -0.0006
@<TRIPOS>BOND
     1    17    18    1
     2    18    14    1
     3    14    19    1
     4    19    20    1
     5    14    15   am
     6    15    16    2
     7    15     8    1
     8     8     9   ar
     9     9    10   ar
    10    10    11   ar
    11    11     1    1
    12     1     2    2
    13     2     3    1
    14     3     4    1
    15     4     5    1
    16     5    27    1
    17    27    28    1
    18    28    29   ar
    19    29    30   ar
    20    30    31   ar
    21    31    32    1
    22    31    33   ar
    23    33    34   ar
    24     5     6    1
    25     6     7    1
    26     1    21    1
    27    21    22   ar
    28    22    23   ar
    29    23    24   ar
    30    24    25   ar
    31    25    26   ar
    32    11    12   ar
    33    12    13   ar
    34    13     8   ar
    35     7     2    1
    36    26    21   ar
    37    34    28   ar
@<TRIPOS>MOLECULE
*****
 34 37 0 0 0
SMALL
GASTEIGER

@<TRIPOS>ATOM
      1 C         141.5793  141.8101  162.0523 C.2     1  UNL1       -0.0063
      2 C         142.0551  141.2161  160.7598 C.2     1  UNL1       -0.0414
      3 C         142.8584  139.9492  160.7674 C.3     1  UNL1        0.0394
      4 C         143.3342  139.3551  159.4749 C.3     1  UNL1        0.0767
      5 N         143.0068  140.0278  158.1748 N.3     1  UNL1       -0.2683
      6 C         142.2035  141.2946  158.1672 C.3     1  UNL1        0.0767
      7 C         141.7277  141.8887  159.4597 C.3     1  UNL1        0.0394
      8 C         142.5616  139.7921  165.9527 C.ar    1  UNL1        0.0536
      9 C         143.4062  140.9313  165.4641 C.ar    1  UNL1        0.0045
     10 C         143.0788  141.6040  164.1640 C.ar    1  UNL1        0.0001
     11 C         141.9067  141.1375  163.3525 C.ar    1  UNL1       -0.0006
     12 C         141.0621  139.9983  163.8411 C.ar    1  UNL1        0.0001
     13 C         141.3895  139.3256  165.1412 C.ar    1  UNL1        0.0045
     14 N         142.2083  139.5569  168.5159 N.am    1  UNL1       -0.2761
     15 C         142.8890  139.1195  167.2528 C.2     1  UNL1        0.2490
     16 O         143.8971  138.0094  167.2899 O.2     1  UNL1       -0.2699
     17 C         143.0994  139.6839  170.9531 C.3     1  UNL1        0.0233
     18 C         142.5358  138.8842  169.8160 C.3     1  UNL1        0.0938
     19 C         141.2002  140.6670  168.4788 C.3     1  UNL1        0.0938
     20 C         139.7368  140.3550  168.5844 C.3     1  UNL1        0.0233
     21 C         140.7760  143.0769  162.0447 C.ar    1  UNL1        0.0186
     22 C         141.4709  144.4058  162.0808 C.ar    1  UNL1        0.0031
     23 C         140.6675  145.6726  162.0732 C.ar    1  UNL1        0.0207
     24 C         139.1695  145.6104  162.0295 C.ar    1  UNL1        0.0989
     25 N         138.4747  144.2815  161.9934 N.ar    1  UNL1       -0.2423
     26 C         139.2779  143.0148  162.0011 C.ar    1  UNL1        0.0988
     27 C         143.4826  139.4337  156.8822 C.3     1  UNL1        0.0992
     28 C         142.9245  138.1246  156.4081 C.ar    1  UNL1       -0.0060
     29 C         143.8318  137.1019  155.7910 C.ar    1  UNL1       -0.0006
     30 C         143.2737  135.7928  155.3169 C.ar    1  UNL1        0.0294
     31 C         141.8082  135.5064  155.4599 C.ar    1  UNL1        0.1401
     32 F         141.2501  134.1974  154.9857 F       1  UNL1       -0.2042
     33 C         140.9009  136.5291  156.0769 C.ar    1  UNL1        0.0294
     34 C         141.4591  137.8383  156.5511 C.ar    1  UNL1       -0.0006
@<TRIPOS>BOND
     1    17    18    1
     2    18    14    1
     3    14    19    1
     4    19    20    1
     5    14    15   am
     6    15    16    2
     7    15     8    1
     8     8     9   ar
     9     9    10   ar
    10    10    11   ar
    11    11     1    1
    12     1     2    2
    13     2     3    1
    14     3     4    1
    15     4     5    1
    16     5    27    1
    17    27    28    1
    18    28    29   ar
    19    29    30   ar
    20    30    31   ar
    21    31    32    1
    22    31    33   ar
    23    33    34   ar
    24     5     6    1
    25     6     7    1
    26     1    21    1
    27    21    22   ar
    28    22    23   ar
    29    23    24   ar
    30    24    25   ar
    31    25    26   ar
    32    11    12   ar
    33    12    13   ar
    34    13     8   ar
    35     7     2    1
    36    26    21   ar
    37    34    28   ar
@<TRIPOS>MOLECULE
*****
 34 37 0 0 0
SMALL
GASTEIGER

@<TRIPOS>ATOM
      1 C         139.1730  140.3863  158.0730 C.2     1  UNL1       -0.0063
      2 C         140.0978  139.4109  157.4075 C.2     1  UNL1       -0.0414
      3 C         140.8671  138.4232  158.2339 C.3     1  UNL1        0.0394
      4 C         141.7920  137.4477  157.5683 C.3     1  UNL1        0.0767
      5 N         141.9477  137.4598  156.0765 N.3     1  UNL1       -0.2683
      6 C         141.1784  138.4474  155.2501 C.3     1  UNL1        0.0767
      7 C         140.2535  139.4230  155.9157 C.3     1  UNL1        0.0394
      8 C         138.7060  140.3500  162.5486 C.ar    1  UNL1        0.0536
      9 C         137.6456  139.7425  161.6789 C.ar    1  UNL1        0.0045
     10 C         137.8012  139.7546  160.1871 C.ar    1  UNL1        0.0001
     11 C         139.0173  140.3742  159.5649 C.ar    1  UNL1       -0.0006
     12 C         140.0778  140.9817  160.4346 C.ar    1  UNL1        0.0001
     13 C         139.9221  140.9696  161.9264 C.ar    1  UNL1        0.0045
     14 N         138.8914  139.1027  164.8201 N.am    1  UNL1       -0.2761
     15 C         138.5504  140.3379  164.0405 C.2     1  UNL1        0.2490
     16 O         138.0537  141.5610  164.7527 O.2     1  UNL1       -0.2699
     17 C         137.6119  138.3229  166.9426 C.3     1  UNL1        0.0233
     18 C         138.7358  139.0906  166.3120 C.3     1  UNL1        0.0938
     19 C         139.3882  137.8795  164.1079 C.3     1  UNL1        0.0938
     20 C         140.8179  137.4521  164.2595 C.3     1  UNL1        0.0233
     21 C         138.4037  141.3739  157.2467 C.ar    1  UNL1        0.0186
     22 C         137.0526  141.0091  156.7069 C.ar    1  UNL1        0.0031
     23 C         136.2834  141.9967  155.8805 C.ar    1  UNL1        0.0207
     24 C         136.8652  143.3492  155.5940 C.ar    1  UNL1        0.0989
     25 N         138.2163  143.7141  156.1338 N.ar    1  UNL1       -0.2423
     26 C         138.9856  142.7265  156.9601 C.ar    1  UNL1        0.0988
     27 C         142.8726  136.4843  155.4110 C.3     1  UNL1        0.0992
     28 C         142.8020  135.0269  155.7587 C.ar    1  UNL1       -0.0060
     29 C         141.7912  134.1441  155.0886 C.ar    1  UNL1       -0.0006
     30 C         141.7206  132.6867  155.4364 C.ar    1  UNL1        0.0294
     31 C         142.6608  132.1120  156.4542 C.ar    1  UNL1        0.1401
     32 F         142.5901  130.6546  156.8019 F       1  UNL1       -0.2042
     33 C         143.6716  132.9948  157.1242 C.ar    1  UNL1        0.0294
     34 C         143.7422  134.4523  156.7764 C.ar    1  UNL1       -0.0006
@<TRIPOS>BOND
     1    17    18    1
     2    18    14    1
     3    14    19    1
     4    19    20    1
     5    14    15   am
     6    15    16    2
     7    15     8    1
     8     8     9   ar
     9     9    10   ar
    10    10    11   ar
    11    11     1    1
    12     1     2    2
    13     2     3    1
    14     3     4    1
    15     4     5    1
    16     5    27    1
    17    27    28    1
    18    28    29   ar
    19    29    30   ar
    20    30    31   ar
    21    31    32    1
    22    31    33   ar
    23    33    34   ar
    24     5     6    1
    25     6     7    1
    26     1    21    1
    27    21    22   ar
    28    22    23   ar
    29    23    24   ar
    30    24    25   ar
    31    25    26   ar
    32    11    12   ar
    33    12    13   ar
    34    13     8   ar
    35     7     2    1
    36    26    21   ar
    37    34    28   ar
@<TRIPOS>MOLECULE
*****
 34 37 0 0 0
SMALL
GASTEIGER

@<TRIPOS>ATOM
      1 C         141.7659  140.6608  159.9697 C.2     1  UNL1       -0.0063
      2 C         142.0191  140.3345  161.4117 C.2     1  UNL1       -0.0414
      3 C         142.1973  138.9073  161.8377 C.3     1  UNL1        0.0394
      4 C         142.4504  138.5810  163.2797 C.3     1  UNL1        0.0767
      5 N         142.5253  139.6819  164.2958 N.3     1  UNL1       -0.2683
      6 C         142.3471  141.1090  163.8699 C.3     1  UNL1        0.0767
      7 C         142.0939  141.4354  162.4278 C.3     1  UNL1        0.0394
      8 C         141.5413  137.3583  156.9213 C.ar    1  UNL1        0.0536
      9 C         140.3257  137.7263  157.7193 C.ar    1  UNL1        0.0045
     10 C         140.4006  138.8272  158.7355 C.ar    1  UNL1        0.0001
     11 C         141.6910  139.5600  158.9536 C.ar    1  UNL1       -0.0006
     12 C         142.9066  139.1919  158.1556 C.ar    1  UNL1        0.0001
     13 C         142.8317  138.0911  157.1395 C.ar    1  UNL1        0.0045
     14 N         142.3046  135.0247  156.0718 N.am    1  UNL1       -0.2761
     15 C         141.4664  136.2574  155.9052 C.2     1  UNL1        0.2490
     16 O         140.5533  136.3893  154.7225 O.2     1  UNL1       -0.2699
     17 C         141.1960  132.8456  155.1929 C.3     1  UNL1        0.0233
     18 C         142.2297  133.9239  155.0557 C.3     1  UNL1        0.0938
     19 C         143.2178  134.8928  157.2545 C.3     1  UNL1        0.0938
     20 C         143.8552  133.5713  157.5662 C.3     1  UNL1        0.0233
     21 C         141.5877  142.0880  159.5438 C.ar    1  UNL1        0.0186
     22 C         140.2180  142.6992  159.5236 C.ar    1  UNL1        0.0031
     23 C         140.0399  144.1264  159.0977 C.ar    1  UNL1        0.0207
     24 C         141.2313  144.9424  158.6921 C.ar    1  UNL1        0.0989
     25 N         142.6010  144.3312  158.7123 N.ar    1  UNL1       -0.2423
     26 C         142.7792  142.9040  159.1382 C.ar    1  UNL1        0.0988
     27 C         142.7784  139.3555  165.7379 C.3     1  UNL1        0.0992
     28 C         141.7080  139.5968  166.7605 C.ar    1  UNL1       -0.0060
     29 C         140.2630  139.5358  166.3625 C.ar    1  UNL1       -0.0006
     30 C         139.1926  139.7771  167.3852 C.ar    1  UNL1        0.0294
     31 C         139.5671  140.0795  168.8059 C.ar    1  UNL1        0.1401
     32 F         138.4966  140.3208  169.8286 F       1  UNL1       -0.2042
     33 C         141.0120  140.1405  169.2039 C.ar    1  UNL1        0.0294
     34 C         142.0825  139.8992  168.1812 C.ar    1  UNL1       -0.0006
@<TRIPOS>BOND
     1    17    18    1
     2    18    14    1
     3    14    19    1
     4    19    20    1
     5    14    15   am
     6    15    16    2
     7    15     8    1
     8     8     9   ar
     9     9    10   ar
    10    10    11   ar
    11    11     1    1
    12     1     2    2
    13     2     3    1
    14     3     4    1
    15     4     5    1
    16     5    27    1
    17    27    28    1
    18    28    29   ar
    19    29    30   ar
    20    30    31   ar
    21    31    32    1
    22    31    33   ar
    23    33    34   ar
    24     5     6    1
    25     6     7    1
    26     1    21    1
    27    21    22   ar
    28    22    23   ar
    29    23    24   ar
    30    24    25   ar
    31    25    26   ar
    32    11    12   ar
    33    12    13   ar
    34    13     8   ar
    35     7     2    1
    36    26    21   ar
    37    34    28   ar
@<TRIPOS>MOLECULE
*****
 34 37 0 0 0
SMALL
GASTEIGER

@<TRIPOS>ATOM
      1 C         142.7449  138.6333  157.5596 C.2     1  UNL1       -0.0063
      2 C         143.5740  139.6793  156.8753 C.2     1  UNL1       -0.0414
      3 C         144.0037  140.9051  157.6256 C.3     1  UNL1        0.0394
      4 C         144.8328  141.9511  156.9412 C.3     1  UNL1        0.0767
      5 N         145.2322  141.7715  155.5066 N.3     1  UNL1       -0.2683
      6 C         144.8025  140.5458  154.7563 C.3     1  UNL1        0.0767
      7 C         143.9733  139.4997  155.4406 C.3     1  UNL1        0.0394
      8 C         141.5468  139.1722  161.8636 C.ar    1  UNL1        0.0536
      9 C         140.9210  140.0231  160.7987 C.ar    1  UNL1        0.0045
     10 C         141.3203  139.8435  159.3640 C.ar    1  UNL1        0.0001
     11 C         142.3456  138.8129  158.9943 C.ar    1  UNL1       -0.0006
     12 C         142.9714  137.9619  160.0592 C.ar    1  UNL1        0.0001
     13 C         142.5721  138.1416  161.4939 C.ar    1  UNL1        0.0045
     14 N         139.9800  138.5906  163.8527 N.am    1  UNL1       -0.2761
     15 C         141.1475  139.3518  163.2983 C.2     1  UNL1        0.2490
     16 O         141.9156  140.2926  164.1784 O.2     1  UNL1       -0.2699
     17 C         138.3187  139.5062  165.6281 C.3     1  UNL1        0.0233
     18 C         139.5806  138.7702  165.2874 C.3     1  UNL1        0.0938
     19 C         139.2118  137.6497  162.9725 C.3     1  UNL1        0.0938
     20 C         138.0906  138.1663  162.1206 C.3     1  UNL1        0.0233
     21 C         142.3152  137.4076  156.8093 C.ar    1  UNL1        0.0186
     22 C         141.0267  137.4115  156.0414 C.ar    1  UNL1        0.0031
     23 C         140.5970  136.1857  155.2911 C.ar    1  UNL1        0.0207
     24 C         141.4558  134.9561  155.3087 C.ar    1  UNL1        0.0989
     25 N         142.7444  134.9522  156.0766 N.ar    1  UNL1       -0.2423
     26 C         143.1741  136.1778  156.8269 C.ar    1  UNL1        0.0988
     27 C         146.0613  142.8176  154.8222 C.3     1  UNL1        0.0992
     28 C         147.5328  142.6006  154.6293 C.ar    1  UNL1       -0.0060
     29 C         148.3029  141.7668  155.6101 C.ar    1  UNL1       -0.0006
     30 C         149.7745  141.5498  155.4171 C.ar    1  UNL1        0.0294
     31 C         150.4761  142.1664  154.2434 C.ar    1  UNL1        0.1401
     32 F         151.9477  141.9493  154.0505 F       1  UNL1       -0.2042
     33 C         149.7060  143.0001  153.2626 C.ar    1  UNL1        0.0294
     34 C         148.2344  143.2172  153.4556 C.ar    1  UNL1       -0.0006
@<TRIPOS>BOND
     1    17    18    1
     2    18    14    1
     3    14    19    1
     4    19    20    1
     5    14    15   am
     6    15    16    2
     7    15     8    1
     8     8     9   ar
     9     9    10   ar
    10    10    11   ar
    11    11     1    1
    12     1     2    2
    13     2     3    1
    14     3     4    1
    15     4     5    1
    16     5    27    1
    17    27    28    1
    18    28    29   ar
    19    29    30   ar
    20    30    31   ar
    21    31    32    1
    22    31    33   ar
    23    33    34   ar
    24     5     6    1
    25     6     7    1
    26     1    21    1
    27    21    22   ar
    28    22    23   ar
    29    23    24   ar
    30    24    25   ar
    31    25    26   ar
    32    11    12   ar
    33    12    13   ar
    34    13     8   ar
    35     7     2    1
    36    26    21   ar
    37    34    28   ar
@<TRIPOS>MOLECULE
*****
 34 37 0 0 0
SMALL
GASTEIGER

@<TRIPOS>ATOM
      1 C         142.6653  137.6675  157.1580 C.2     1  UNL1       -0.0063
      2 C         143.4196  138.7630  156.4646 C.2     1  UNL1       -0.0414
      3 C         143.5534  140.1087  157.1137 C.3     1  UNL1        0.0394
      4 C         144.3077  141.2042  156.4204 C.3     1  UNL1        0.0767
      5 N         144.9282  140.9541  155.0778 N.3     1  UNL1       -0.2683
      6 C         144.7944  139.6085  154.4287 C.3     1  UNL1        0.0767
      7 C         144.0401  138.5129  155.1220 C.3     1  UNL1        0.0394
      8 C         140.8037  138.4177  161.1856 C.ar    1  UNL1        0.0536
      9 C         142.2222  137.9390  161.0924 C.ar    1  UNL1        0.0045
     10 C         142.8427  137.6890  159.7499 C.ar    1  UNL1        0.0001
     11 C         142.0447  137.9176  158.5005 C.ar    1  UNL1       -0.0006
     12 C         140.6263  138.3962  158.5937 C.ar    1  UNL1        0.0001
     13 C         140.0057  138.6463  159.9362 C.ar    1  UNL1        0.0045
     14 N         140.3233  140.0111  163.1807 N.am    1  UNL1       -0.2761
     15 C         140.1832  138.6678  162.5281 C.2     1  UNL1        0.2490
     16 O         139.4225  137.5746  163.2182 O.2     1  UNL1       -0.2699
     17 C         138.2631  140.6711  164.6194 C.3     1  UNL1        0.0233
     18 C         139.7028  140.2612  164.5232 C.3     1  UNL1        0.0938
     19 C         141.0840  141.1044  162.4906 C.3     1  UNL1        0.0938
     20 C         140.3532  142.1189  161.6620 C.3     1  UNL1        0.0233
     21 C         142.5314  136.3219  156.5088 C.ar    1  UNL1        0.0186
     22 C         143.6128  135.2964  156.6787 C.ar    1  UNL1        0.0031
     23 C         143.4790  133.9507  156.0294 C.ar    1  UNL1        0.0207
     24 C         142.2638  133.6307  155.2104 C.ar    1  UNL1        0.0989
     25 N         141.1824  134.6562  155.0406 N.ar    1  UNL1       -0.2423
     26 C         141.3162  136.0018  155.6897 C.ar    1  UNL1        0.0988
     27 C         145.6826  142.0497  154.3844 C.3     1  UNL1        0.0992
     28 C         147.1825  142.0370  154.3737 C.ar    1  UNL1       -0.0060
     29 C         147.9256  142.3025  153.0980 C.ar    1  UNL1       -0.0006
     30 C         149.4255  142.2898  153.0873 C.ar    1  UNL1        0.0294
     31 C         150.1823  142.0117  154.3522 C.ar    1  UNL1        0.1401
     32 F         151.6822  141.9990  154.3414 F       1  UNL1       -0.2042
     33 C         149.4392  141.7462  155.6278 C.ar    1  UNL1        0.0294
     34 C         147.9392  141.7589  155.6385 C.ar    1  UNL1       -0.0006
@<TRIPOS>BOND
     1    17    18    1
     2    18    14    1
     3    14    19    1
     4    19    20    1
     5    14    15   am
     6    15    16    2
     7    15     8    1
     8     8     9   ar
     9     9    10   ar
    10    10    11   ar
    11    11     1    1
    12     1     2    2
    13     2     3    1
    14     3     4    1
    15     4     5    1
    16     5    27    1
    17    27    28    1
    18    28    29   ar
    19    29    30   ar
    20    30    31   ar
    21    31    32    1
    22    31    33   ar
    23    33    34   ar
    24     5     6    1
    25     6     7    1
    26     1    21    1
    27    21    22   ar
    28    22    23   ar
    29    23    24   ar
    30    24    25   ar
    31    25    26   ar
    32    11    12   ar
    33    12    13   ar
    34    13     8   ar
    35     7     2    1
    36    26    21   ar
    37    34    28   ar
@<TRIPOS>MOLECULE
*****
 34 37 0 0 0
SMALL
GASTEIGER

@<TRIPOS>ATOM
      1 C         141.7869  139.6551  158.2435 C.2     1  UNL1       -0.0063
      2 C         141.8518  139.4657  159.7301 C.2     1  UNL1       -0.0414
      3 C         142.0603  138.0952  160.3032 C.3     1  UNL1        0.0394
      4 C         142.1252  137.9058  161.7897 C.3     1  UNL1        0.0767
      5 N         141.9815  139.0868  162.7032 N.3     1  UNL1       -0.2683
      6 C         141.7730  140.4573  162.1302 C.3     1  UNL1        0.0767
      7 C         141.7081  140.6467  160.6436 C.3     1  UNL1        0.0394
      8 C         142.2179  136.1121  155.5029 C.ar    1  UNL1        0.0536
      9 C         140.8667  136.4900  156.0333 C.ar    1  UNL1        0.0045
     10 C         140.7230  137.6710  156.9469 C.ar    1  UNL1        0.0001
     11 C         141.9306  138.4741  157.3300 C.ar    1  UNL1       -0.0006
     12 C         143.2818  138.0962  156.7996 C.ar    1  UNL1        0.0001
     13 C         143.4254  136.9152  155.8861 C.ar    1  UNL1        0.0045
     14 N         142.6420  133.5720  155.1589 N.am    1  UNL1       -0.2761
     15 C         142.3616  134.9310  154.5894 C.2     1  UNL1        0.2490
     16 O         142.2249  135.1090  153.1063 O.2     1  UNL1       -0.2699
     17 C         141.5677  131.6455  153.7861 C.3     1  UNL1        0.0233
     18 C         142.7857  132.3910  154.2454 C.3     1  UNL1        0.0938
     19 C         142.7787  133.3940  156.6421 C.3     1  UNL1        0.0938
     20 C         144.1382  133.3993  157.2759 C.3     1  UNL1        0.0233
     21 C         141.5783  141.0255  157.6705 C.ar    1  UNL1        0.0186
     22 C         140.1881  141.5577  157.4859 C.ar    1  UNL1        0.0031
     23 C         139.9795  142.9282  156.9128 C.ar    1  UNL1        0.0207
     24 C         141.1612  143.7665  156.5245 C.ar    1  UNL1        0.0989
     25 N         142.5514  143.2343  156.7091 N.ar    1  UNL1       -0.2423
     26 C         142.7600  141.8639  157.2821 C.ar    1  UNL1        0.0988
     27 C         142.0464  138.8974  164.1899 C.3     1  UNL1        0.0992
     28 C         140.7812  138.7839  164.9874 C.ar    1  UNL1       -0.0060
     29 C         139.8093  137.6783  164.6989 C.ar    1  UNL1       -0.0006
     30 C         138.5441  137.5648  165.4965 C.ar    1  UNL1        0.0294
     31 C         138.2505  138.5570  166.5826 C.ar    1  UNL1        0.1401
     32 F         136.9852  138.4435  167.3801 F       1  UNL1       -0.2042
     33 C         139.2224  139.6626  166.8711 C.ar    1  UNL1        0.0294
     34 C         140.4877  139.7760  166.0734 C.ar    1  UNL1       -0.0006
@<TRIPOS>BOND
     1    17    18    1
     2    18    14    1
     3    14    19    1
     4    19    20    1
     5    14    15   am
     6    15    16    2
     7    15     8    1
     8     8     9   ar
     9     9    10   ar
    10    10    11   ar
    11    11     1    1
    12     1     2    2
    13     2     3    1
    14     3     4    1
    15     4     5    1
    16     5    27    1
    17    27    28    1
    18    28    29   ar
    19    29    30   ar
    20    30    31   ar
    21    31    32    1
    22    31    33   ar
    23    33    34   ar
    24     5     6    1
    25     6     7    1
    26     1    21    1
    27    21    22   ar
    28    22    23   ar
    29    23    24   ar
    30    24    25   ar
    31    25    26   ar
    32    11    12   ar
    33    12    13   ar
    34    13     8   ar
    35     7     2    1
    36    26    21   ar
    37    34    28   ar
