@<TRIPOS>MOLECULE
*****
 29 29 0 0 0
SMALL
GASTEIGER

@<TRIPOS>ATOM
      1 C         141.5817  139.7234  164.1948 C.3     1  UNL1        0.1035
      2 C         141.6426  138.2394  163.9850 C.3     1  UNL1        0.1002
      3 C         140.4777  137.6219  164.7003 C.3     1  UNL1        0.3324
      4 F         139.4302  136.7352  165.3057 F       1  UNL1       -0.1945
      5 F         141.0396  136.3342  164.1750 F       1  UNL1       -0.1945
      6 C         139.6968  138.7243  165.3521 C.2     1  UNL1        0.2871
      7 O         138.4521  138.5573  166.1724 O.2     1  UNL1       -0.2690
      8 N         140.3791  140.0231  165.0397 N.am    1  UNL1       -0.2728
      9 C         143.8768  140.9336  164.3299 C.2     1  UNL1       -0.0004
     10 C         142.5529  140.7309  163.6545 C.2     1  UNL1       -0.0087
     11 C         144.8479  141.9410  163.7896 C.3     1  UNL1        0.1331
     12 O         146.3233  141.6911  163.8933 O.3     1  UNL1       -0.3800
     13 H         146.8056  142.4345  163.4988 H       1  UNL1        0.2108
     14 C         144.3436  143.1985  163.1456 C.3     1  UNL1        0.0441
     15 C         144.4183  143.3603  161.6562 C.3     1  UNL1        0.0039
     16 C         143.7648  144.2940  163.9910 C.3     1  UNL1        0.0788
     17 C         140.7938  144.6977  164.0949 C.1     1  UNL1       -0.0911
     18 C         142.2793  144.4958  164.0430 C.1     1  UNL1       -0.0910
     19 C         138.5984  144.9076  165.4682 C.3     1  UNL1        0.0150
     20 C         139.3084  144.8995  164.1469 C.3     1  UNL1        0.0761
     21 C         139.9365  141.3828  165.4927 C.3     1  UNL1        0.0938
     22 C         140.3610  141.9013  166.8348 C.3     1  UNL1        0.0215
     23 C         141.7148  142.5246  167.0040 C.3     1  UNL1        0.0018
     24 C         142.8040  141.7722  167.7093 C.3     1  UNL1        0.0004
     25 C         142.8095  141.6890  169.2070 C.3     1  UNL1        0.0059
     26 C         142.3912  142.8743  170.0256 C.3     1  UNL1        0.0417
     27 C         140.9891  142.9660  170.5507 C.2     1  UNL1        0.0503
     28 O         140.5999  142.2093  171.7860 O.co2   1  UNL1       -0.5492
     29 O         139.9763  143.8144  169.8406 O.co2   1  UNL1       -0.5492
@<TRIPOS>UNITY_ATOM_ATTR
28 1
charge -1
@<TRIPOS>BOND
     1    19    20    1
     2    20    17    1
     3    17    18    3
     4    18    16    1
     5    16    14    1
     6    14    15    1
     7    14    11    1
     8    11    12    1
     9    11     9    1
    10     9    10    2
    11     1    10    1
    12     1     2    1
    13     2     3    1
    14     3     4    1
    15     3     5    1
    16     3     6    1
    17     6     7    2
    18     6     8   am
    19     8    21    1
    20    21    22    1
    21    22    23    1
    22    23    24    1
    23    24    25    1
    24    25    26    1
    25    26    27    1
    26    27    28   ar
    27    27    29   ar
    28     8     1    1
    29    12    13    1
@<TRIPOS>MOLECULE
*****
 29 29 0 0 0
SMALL
GASTEIGER

@<TRIPOS>ATOM
      1 C         141.5691  142.4618  164.2255 C.3     1  UNL1        0.1035
      2 C         141.4795  143.8977  163.8011 C.3     1  UNL1        0.1002
      3 C         142.7507  144.5817  164.2087 C.3     1  UNL1        0.3324
      4 F         143.8887  145.5185  164.4871 F       1  UNL1       -0.1945
      5 F         142.1134  145.7907  163.5906 F       1  UNL1       -0.1945
      6 C         143.6259  143.5686  164.8851 C.2     1  UNL1        0.2871
      7 O         144.9917  143.8212  165.4516 O.2     1  UNL1       -0.2690
      8 N         142.8956  142.2584  164.8954 N.am    1  UNL1       -0.2728
      9 C         139.3686  141.3017  164.9753 C.2     1  UNL1       -0.0004
     10 C         140.5168  141.4134  164.0166 C.2     1  UNL1       -0.0087
     11 C         138.3164  140.2533  164.7665 C.3     1  UNL1        0.1331
     12 O         137.1908  140.5012  163.8065 O.3     1  UNL1       -0.3800
     13 H         136.6036  139.7293  163.7905 H       1  UNL1        0.2108
     14 C         138.3898  138.9570  165.5177 C.3     1  UNL1        0.0441
     15 C         137.8503  138.8680  166.9145 C.3     1  UNL1        0.0039
     16 C         139.0026  137.7497  164.8720 C.3     1  UNL1        0.0788
     17 C         141.6075  137.9934  163.4040 C.1     1  UNL1       -0.0911
     18 C         140.3051  137.8715  164.1380 C.1     1  UNL1       -0.0910
     19 C         143.3284  139.4380  162.0995 C.3     1  UNL1        0.0150
     20 C         142.9099  138.1153  162.6700 C.3     1  UNL1        0.0761
     21 C         143.4029  140.9708  165.4742 C.3     1  UNL1        0.0938
     22 C         142.5088  140.1343  166.3407 C.3     1  UNL1        0.0215
     23 C         142.4534  140.3805  167.8194 C.3     1  UNL1        0.0018
     24 C         141.1496  140.2607  168.5512 C.3     1  UNL1        0.0004
     25 C         140.1627  141.3899  168.5150 C.3     1  UNL1        0.0059
     26 C         140.6449  142.8093  168.5675 C.3     1  UNL1        0.0417
     27 C         140.8438  143.4854  169.8916 C.2     1  UNL1        0.0503
     28 O         141.7965  142.9052  170.8943 O.co2   1  UNL1       -0.5492
     29 O         140.0899  144.7417  170.2129 O.co2   1  UNL1       -0.5492
@<TRIPOS>UNITY_ATOM_ATTR
28 1
charge -1
@<TRIPOS>BOND
     1    19    20    1
     2    20    17    1
     3    17    18    3
     4    18    16    1
     5    16    14    1
     6    14    15    1
     7    14    11    1
     8    11    12    1
     9    11     9    1
    10     9    10    2
    11     1    10    1
    12     1     2    1
    13     2     3    1
    14     3     4    1
    15     3     5    1
    16     3     6    1
    17     6     7    2
    18     6     8   am
    19     8    21    1
    20    21    22    1
    21    22    23    1
    22    23    24    1
    23    24    25    1
    24    25    26    1
    25    26    27    1
    26    27    28   ar
    27    27    29   ar
    28     8     1    1
    29    12    13    1
@<TRIPOS>MOLECULE
*****
 29 29 0 0 0
SMALL
GASTEIGER

@<TRIPOS>ATOM
      1 C         140.7312  141.7582  167.9756 C.3     1  UNL1        0.1035
      2 C         140.3187  142.8021  168.9706 C.3     1  UNL1        0.1002
      3 C         141.5496  143.2702  169.6887 C.3     1  UNL1        0.3324
      4 F         142.5804  143.9247  170.5601 F       1  UNL1       -0.1945
      5 F         140.5918  144.1616  170.4221 F       1  UNL1       -0.1945
      6 C         142.7230  142.5156  169.1374 C.2     1  UNL1        0.2871
      7 O         144.1513  142.6686  169.5691 O.2     1  UNL1       -0.2690
      8 N         142.2171  141.5812  168.0787 N.am    1  UNL1       -0.2728
      9 C         139.2933  139.6673  167.4186 C.2     1  UNL1       -0.0004
     10 C         139.8181  141.0209  167.0414 C.2     1  UNL1       -0.0087
     11 C         138.3802  138.9299  166.4844 C.3     1  UNL1        0.1331
     12 O         137.0856  138.3662  166.9905 O.3     1  UNL1       -0.3800
     13 H         136.6194  137.9240  166.2638 H       1  UNL1        0.2108
     14 C         138.7618  138.7563  165.0442 C.3     1  UNL1        0.0441
     15 C         139.7942  137.7384  164.6593 C.3     1  UNL1        0.0039
     16 C         138.1111  139.6005  163.9888 C.3     1  UNL1        0.0788
     17 C         137.8875  142.5680  164.3686 C.1     1  UNL1       -0.0911
     18 C         137.9993  141.0843  164.1787 C.1     1  UNL1       -0.0910
     19 C         138.7886  144.7796  165.3919 C.3     1  UNL1        0.0150
     20 C         137.7758  144.0517  164.5585 C.3     1  UNL1        0.0761
     21 C         143.0509  140.6357  167.2657 C.3     1  UNL1        0.0938
     22 C         143.1876  140.8387  165.7859 C.3     1  UNL1        0.0215
     23 C         142.9057  142.1836  165.1842 C.3     1  UNL1        0.0018
     24 C         144.0072  142.9520  164.5161 C.3     1  UNL1        0.0004
     25 C         143.9337  144.4478  164.4313 C.3     1  UNL1        0.0059
     26 C         142.8097  145.1023  163.6842 C.3     1  UNL1        0.0417
     27 C         142.2039  144.4211  162.4930 C.2     1  UNL1        0.0503
     28 O         140.8192  143.8509  162.5788 O.co2   1  UNL1       -0.5492
     29 O         142.9829  144.3100  161.2159 O.co2   1  UNL1       -0.5492
@<TRIPOS>UNITY_ATOM_ATTR
28 1
charge -1
@<TRIPOS>BOND
     1    19    20    1
     2    20    17    1
     3    17    18    3
     4    18    16    1
     5    16    14    1
     6    14    15    1
     7    14    11    1
     8    11    12    1
     9    11     9    1
    10     9    10    2
    11     1    10    1
    12     1     2    1
    13     2     3    1
    14     3     4    1
    15     3     5    1
    16     3     6    1
    17     6     7    2
    18     6     8   am
    19     8    21    1
    20    21    22    1
    21    22    23    1
    22    23    24    1
    23    24    25    1
    24    25    26    1
    25    26    27    1
    26    27    28   ar
    27    27    29   ar
    28     8     1    1
    29    12    13    1
@<TRIPOS>MOLECULE
*****
 29 29 0 0 0
SMALL
GASTEIGER

@<TRIPOS>ATOM
      1 C         142.5413  141.8869  163.8773 C.3     1  UNL1        0.1035
      2 C         143.9853  142.2576  163.7120 C.3     1  UNL1        0.1002
      3 C         144.8175  141.1028  164.1850 C.3     1  UNL1        0.3324
      4 F         145.8910  140.1322  164.5796 F       1  UNL1       -0.1945
      5 F         145.9717  141.9844  163.8099 F       1  UNL1       -0.1945
      6 C         143.8878  140.0182  164.6426 C.2     1  UNL1        0.2871
      7 O         144.2936  138.6834  165.1936 O.2     1  UNL1       -0.2690
      8 N         142.4811  140.5028  164.4524 N.am    1  UNL1       -0.2728
      9 C         141.2346  144.1186  164.1259 C.2     1  UNL1       -0.0004
     10 C         141.3642  142.7488  163.5286 C.2     1  UNL1       -0.0087
     11 C         140.0575  144.9805  163.7772 C.3     1  UNL1        0.1331
     12 O         140.2290  146.1425  162.8443 O.3     1  UNL1       -0.3800
     13 H         139.3769  146.5907  162.7262 H       1  UNL1        0.2108
     14 C         138.7089  144.6804  164.3615 C.3     1  UNL1        0.0441
     15 C         138.3923  145.0936  165.7683 C.3     1  UNL1        0.0039
     16 C         137.6771  143.9671  163.5391 C.3     1  UNL1        0.0788
     17 C         137.8580  140.9977  163.1517 C.1     1  UNL1       -0.0911
     18 C         137.7676  142.4824  163.3453 C.1     1  UNL1       -0.0910
     19 C         137.8298  138.9275  161.5821 C.3     1  UNL1        0.0150
     20 C         137.9484  139.5131  162.9580 C.3     1  UNL1        0.0761
     21 C         141.2331  139.7377  164.7798 C.3     1  UNL1        0.0938
     22 C         140.5883  139.8948  166.1250 C.3     1  UNL1        0.0215
     23 C         139.7862  141.1243  166.4332 C.3     1  UNL1        0.0018
     24 C         140.4433  142.3041  167.0862 C.3     1  UNL1        0.0004
     25 C         141.2282  142.1204  168.3512 C.3     1  UNL1        0.0059
     26 C         141.1185  143.1299  169.4552 C.3     1  UNL1        0.0417
     27 C         141.9482  142.9780  170.6956 C.2     1  UNL1        0.0503
     28 O         141.4693  142.1030  171.8158 O.co2   1  UNL1       -0.5492
     29 O         143.2570  143.7010  170.8156 O.co2   1  UNL1       -0.5492
@<TRIPOS>UNITY_ATOM_ATTR
28 1
charge -1
@<TRIPOS>BOND
     1    19    20    1
     2    20    17    1
     3    17    18    3
     4    18    16    1
     5    16    14    1
     6    14    15    1
     7    14    11    1
     8    11    12    1
     9    11     9    1
    10     9    10    2
    11     1    10    1
    12     1     2    1
    13     2     3    1
    14     3     4    1
    15     3     5    1
    16     3     6    1
    17     6     7    2
    18     6     8   am
    19     8    21    1
    20    21    22    1
    21    22    23    1
    22    23    24    1
    23    24    25    1
    24    25    26    1
    25    26    27    1
    26    27    28   ar
    27    27    29   ar
    28     8     1    1
    29    12    13    1
@<TRIPOS>MOLECULE
*****
 29 29 0 0 0
SMALL
GASTEIGER

@<TRIPOS>ATOM
      1 C         140.9901  142.4866  163.5283 C.3     1  UNL1        0.1035
      2 C         141.4606  143.8279  163.0491 C.3     1  UNL1        0.1002
      3 C         140.2546  144.6955  162.8422 C.3     1  UNL1        0.3324
      4 F         139.2593  145.7787  162.5490 F       1  UNL1       -0.1945
      5 F         141.2624  145.7270  162.4296 F       1  UNL1       -0.1945
      6 C         139.0387  143.8905  163.1935 C.2     1  UNL1        0.2871
      7 O         137.6177  144.3669  163.1317 O.2     1  UNL1       -0.2690
      8 N         139.4932  142.5253  163.6176 N.am    1  UNL1       -0.2728
      9 C         141.8651  140.1047  162.9710 C.2     1  UNL1       -0.0004
     10 C         141.8631  141.3128  163.8600 C.2     1  UNL1       -0.0087
     11 C         142.7381  138.9309  163.3027 C.3     1  UNL1        0.1331
     12 O         142.6739  137.6881  162.4653 O.3     1  UNL1       -0.3800
     13 H         143.2972  137.0313  162.8131 H       1  UNL1        0.2108
     14 C         143.6753  138.9999  164.4719 C.3     1  UNL1        0.0441
     15 C         145.0193  139.6481  164.3184 C.3     1  UNL1        0.0039
     16 C         143.2685  138.4207  165.7944 C.3     1  UNL1        0.0788
     17 C         141.5967  140.0375  167.6894 C.1     1  UNL1       -0.0911
     18 C         142.4326  139.2291  166.7419 C.1     1  UNL1       -0.0910
     19 C         139.4665  140.2919  169.1549 C.3     1  UNL1        0.0150
     20 C         140.7607  140.8458  168.6369 C.3     1  UNL1        0.0761
     21 C         138.6066  141.3970  164.0542 C.3     1  UNL1        0.0938
     22 C         138.7023  140.8664  165.4540 C.3     1  UNL1        0.0215
     23 C         138.0304  139.5745  165.8139 C.3     1  UNL1        0.0018
     24 C         138.8364  138.3138  165.9189 C.3     1  UNL1        0.0004
     25 C         139.5995  137.8103  164.7297 C.3     1  UNL1        0.0059
     26 C         138.8649  137.2279  163.5587 C.3     1  UNL1        0.0417
     27 C         138.8595  137.9484  162.2431 C.2     1  UNL1        0.0503
     28 O         137.7280  138.8705  161.8976 O.co2   1  UNL1       -0.5492
     29 O         139.9856  137.7468  161.2729 O.co2   1  UNL1       -0.5492
@<TRIPOS>UNITY_ATOM_ATTR
28 1
charge -1
@<TRIPOS>BOND
     1    19    20    1
     2    20    17    1
     3    17    18    3
     4    18    16    1
     5    16    14    1
     6    14    15    1
     7    14    11    1
     8    11    12    1
     9    11     9    1
    10     9    10    2
    11     1    10    1
    12     1     2    1
    13     2     3    1
    14     3     4    1
    15     3     5    1
    16     3     6    1
    17     6     7    2
    18     6     8   am
    19     8    21    1
    20    21    22    1
    21    22    23    1
    22    23    24    1
    23    24    25    1
    24    25    26    1
    25    26    27    1
    26    27    28   ar
    27    27    29   ar
    28     8     1    1
    29    12    13    1
@<TRIPOS>MOLECULE
*****
 29 29 0 0 0
SMALL
GASTEIGER

@<TRIPOS>ATOM
      1 C         139.5509  140.7269  165.4824 C.3     1  UNL1        0.1035
      2 C         138.3866  139.8669  165.8757 C.3     1  UNL1        0.1002
      3 C         138.7812  138.4334  165.6771 C.3     1  UNL1        0.3324
      4 F         138.8860  136.9400  165.5822 F       1  UNL1       -0.1945
      5 F         137.3950  138.1470  166.1733 F       1  UNL1       -0.1945
      6 C         140.1894  138.4075  165.1610 C.2     1  UNL1        0.2871
      7 O         140.9827  137.1798  164.8244 O.2     1  UNL1       -0.2690
      8 N         140.6651  139.8250  165.0407 N.am    1  UNL1       -0.2728
      9 C         139.6654  143.0094  164.2466 C.2     1  UNL1       -0.0004
     10 C         139.5935  142.2258  165.5236 C.2     1  UNL1       -0.0087
     11 C         139.7080  144.5082  164.2878 C.3     1  UNL1        0.1331
     12 O         138.8095  145.2586  165.2256 O.3     1  UNL1       -0.3800
     13 H         138.9621  146.2114  165.1266 H       1  UNL1        0.2108
     14 C         140.6492  145.2567  163.3910 C.3     1  UNL1        0.0441
     15 C         140.1468  145.8604  162.1131 C.3     1  UNL1        0.0039
     16 C         142.0927  145.4014  163.7722 C.3     1  UNL1        0.0788
     17 C         144.0635  143.2677  163.0216 C.1     1  UNL1       -0.0911
     18 C         143.0781  144.3345  163.3969 C.1     1  UNL1       -0.0910
     19 C         145.9251  141.5860  163.6972 C.3     1  UNL1        0.0150
     20 C         145.0488  142.2009  162.6464 C.3     1  UNL1        0.0761
     21 C         142.0175  140.2636  164.5626 C.3     1  UNL1        0.0938
     22 C         143.1108  140.5366  165.5527 C.3     1  UNL1        0.0215
     23 C         142.7702  140.8342  166.9829 C.3     1  UNL1        0.0018
     24 C         142.5702  139.7101  167.9557 C.3     1  UNL1        0.0004
     25 C         141.5970  139.8615  169.0871 C.3     1  UNL1        0.0059
     26 C         140.3115  140.6052  168.8762 C.3     1  UNL1        0.0417
     27 C         139.3913  140.8556  170.0340 C.2     1  UNL1        0.0503
     28 O         139.3389  142.2129  170.6704 O.co2   1  UNL1       -0.5492
     29 O         138.5235  139.7488  170.5554 O.co2   1  UNL1       -0.5492
@<TRIPOS>UNITY_ATOM_ATTR
28 1
charge -1
@<TRIPOS>BOND
     1    19    20    1
     2    20    17    1
     3    17    18    3
     4    18    16    1
     5    16    14    1
     6    14    15    1
     7    14    11    1
     8    11    12    1
     9    11     9    1
    10     9    10    2
    11     1    10    1
    12     1     2    1
    13     2     3    1
    14     3     4    1
    15     3     5    1
    16     3     6    1
    17     6     7    2
    18     6     8   am
    19     8    21    1
    20    21    22    1
    21    22    23    1
    22    23    24    1
    23    24    25    1
    24    25    26    1
    25    26    27    1
    26    27    28   ar
    27    27    29   ar
    28     8     1    1
    29    12    13    1
@<TRIPOS>MOLECULE
*****
 29 29 0 0 0
SMALL
GASTEIGER

@<TRIPOS>ATOM
      1 C         139.8673  140.1442  167.2051 C.3     1  UNL1        0.1035
      2 C         139.0229  139.9906  168.4353 C.3     1  UNL1        0.1002
      3 C         139.8942  140.2427  169.6300 C.3     1  UNL1        0.3324
      4 F         140.5031  140.4387  170.9869 F       1  UNL1       -0.1945
      5 F         138.6387  139.9742  170.4056 F       1  UNL1       -0.1945
      6 C         141.2771  140.5522  169.1382 C.2     1  UNL1        0.2871
      7 O         142.4676  140.8672  169.9946 O.2     1  UNL1       -0.2690
      8 N         141.2604  140.4913  167.6395 N.am    1  UNL1       -0.2728
      9 C         138.5374  141.0311  165.1569 C.2     1  UNL1       -0.0004
     10 C         139.4005  139.9796  165.7891 C.2     1  UNL1       -0.0087
     11 C         138.0706  140.8665  163.7410 C.3     1  UNL1        0.1331
     12 O         136.7443  141.4256  163.3187 O.3     1  UNL1       -0.3800
     13 H         136.5967  141.2334  162.3795 H       1  UNL1        0.2108
     14 C         138.9302  140.1428  162.7472 C.3     1  UNL1        0.0441
     15 C         138.5521  138.7645  162.2918 C.3     1  UNL1        0.0039
     16 C         140.1678  140.7974  162.2089 C.3     1  UNL1        0.0788
     17 C         142.8714  139.8847  163.1350 C.1     1  UNL1       -0.0911
     18 C         141.5196  140.3411  162.6720 C.1     1  UNL1       -0.0910
     19 C         145.2318  140.4323  164.0723 C.3     1  UNL1        0.0150
     20 C         144.2231  139.4284  163.5980 C.3     1  UNL1        0.0761
     21 C         142.4314  140.7348  166.7341 C.3     1  UNL1        0.0938
     22 C         142.7167  142.1194  166.2329 C.3     1  UNL1        0.0215
     23 C         141.7840  142.7698  165.2544 C.3     1  UNL1        0.0018
     24 C         142.2938  143.8294  164.3231 C.3     1  UNL1        0.0004
     25 C         141.3649  144.8924  163.8161 C.3     1  UNL1        0.0059
     26 C         140.1542  144.5114  163.0166 C.3     1  UNL1        0.0417
     27 C         138.7883  144.6175  163.6274 C.2     1  UNL1        0.0503
     28 O         138.6400  144.9864  165.0737 O.co2   1  UNL1       -0.5492
     29 O         137.5706  144.3546  162.7919 O.co2   1  UNL1       -0.5492
@<TRIPOS>UNITY_ATOM_ATTR
28 1
charge -1
@<TRIPOS>BOND
     1    19    20    1
     2    20    17    1
     3    17    18    3
     4    18    16    1
     5    16    14    1
     6    14    15    1
     7    14    11    1
     8    11    12    1
     9    11     9    1
    10     9    10    2
    11     1    10    1
    12     1     2    1
    13     2     3    1
    14     3     4    1
    15     3     5    1
    16     3     6    1
    17     6     7    2
    18     6     8   am
    19     8    21    1
    20    21    22    1
    21    22    23    1
    22    23    24    1
    23    24    25    1
    24    25    26    1
    25    26    27    1
    26    27    28   ar
    27    27    29   ar
    28     8     1    1
    29    12    13    1
@<TRIPOS>MOLECULE
*****
 29 29 0 0 0
SMALL
GASTEIGER

@<TRIPOS>ATOM
      1 C         141.2747  140.1031  163.8586 C.3     1  UNL1        0.1035
      2 C         140.8965  139.4275  162.5739 C.3     1  UNL1        0.1002
      3 C         139.9079  138.3453  162.8927 C.3     1  UNL1        0.3324
      4 F         138.9250  137.2122  162.9021 F       1  UNL1       -0.1945
      5 F         139.9353  138.1017  161.4128 F       1  UNL1       -0.1945
      6 C         139.6751  138.3521  164.3745 C.2     1  UNL1        0.2871
      7 O         138.7585  137.4338  165.1271 O.2     1  UNL1       -0.2690
      8 N         140.5198  139.4384  164.9714 N.am    1  UNL1       -0.2728
      9 C         143.1060  141.6447  162.8491 C.2     1  UNL1       -0.0004
     10 C         142.2385  141.2431  164.0049 C.2     1  UNL1       -0.0087
     11 C         144.0699  142.7848  162.9953 C.3     1  UNL1        0.1331
     12 O         145.2516  142.8903  162.0775 O.3     1  UNL1       -0.3800
     13 H         145.7688  143.6785  162.3058 H       1  UNL1        0.2108
     14 C         143.8519  143.8193  164.0595 C.3     1  UNL1        0.0441
     15 C         144.5722  143.7098  165.3706 C.3     1  UNL1        0.0039
     16 C         142.9137  144.9633  163.8124 C.3     1  UNL1        0.0788
     17 C         139.9835  144.6482  164.3736 C.1     1  UNL1       -0.0911
     18 C         141.4486  144.8057  164.0930 C.1     1  UNL1       -0.0910
     19 C         137.8537  143.1620  164.4468 C.3     1  UNL1        0.0150
     20 C         138.5185  144.4906  164.6542 C.3     1  UNL1        0.0761
     21 C         140.5961  139.7971  166.4259 C.3     1  UNL1        0.0938
     22 C         139.8266  140.9732  166.9498 C.3     1  UNL1        0.0215
     23 C         140.5130  142.2930  167.1424 C.3     1  UNL1        0.0018
     24 C         141.9167  142.3384  167.6692 C.3     1  UNL1        0.0004
     25 C         142.2007  141.9271  169.0835 C.3     1  UNL1        0.0059
     26 C         142.9480  140.6560  169.3592 C.3     1  UNL1        0.0417
     27 C         142.2090  139.4386  169.8301 C.2     1  UNL1        0.0503
     28 O         140.7244  139.4958  170.0372 O.co2   1  UNL1       -0.5492
     29 O         142.9545  138.1640  170.0938 O.co2   1  UNL1       -0.5492
@<TRIPOS>UNITY_ATOM_ATTR
28 1
charge -1
@<TRIPOS>BOND
     1    19    20    1
     2    20    17    1
     3    17    18    3
     4    18    16    1
     5    16    14    1
     6    14    15    1
     7    14    11    1
     8    11    12    1
     9    11     9    1
    10     9    10    2
    11     1    10    1
    12     1     2    1
    13     2     3    1
    14     3     4    1
    15     3     5    1
    16     3     6    1
    17     6     7    2
    18     6     8   am
    19     8    21    1
    20    21    22    1
    21    22    23    1
    22    23    24    1
    23    24    25    1
    24    25    26    1
    25    26    27    1
    26    27    28   ar
    27    27    29   ar
    28     8     1    1
    29    12    13    1
@<TRIPOS>MOLECULE
*****
 29 29 0 0 0
SMALL
GASTEIGER

@<TRIPOS>ATOM
      1 C         140.0935  141.7818  163.2746 C.3     1  UNL1        0.1035
      2 C         139.0252  142.2200  162.3172 C.3     1  UNL1        0.1002
      3 C         138.2585  143.3385  162.9585 C.3     1  UNL1        0.3324
      4 F         137.3268  144.4528  163.3331 F       1  UNL1       -0.1945
      5 F         137.4692  143.3185  161.6831 F       1  UNL1       -0.1945
      6 C         138.8530  143.5915  164.3122 C.2     1  UNL1        0.2871
      7 O         138.3940  144.6251  165.2975 O.2     1  UNL1       -0.2690
      8 N         139.9871  142.6294  164.5075 N.am    1  UNL1       -0.2728
      9 C         140.7732  139.2802  163.4475 C.2     1  UNL1       -0.0004
     10 C         141.0928  140.6880  163.0402 C.2     1  UNL1       -0.0087
     11 C         141.7725  138.1864  163.2130 C.3     1  UNL1        0.1331
     12 O         141.3128  136.7637  163.0921 O.3     1  UNL1       -0.3800
     13 H         142.0790  136.1878  162.9435 H       1  UNL1        0.2108
     14 C         143.2317  138.5152  163.0996 C.3     1  UNL1        0.0441
     15 C         143.9283  138.3891  161.7772 C.3     1  UNL1        0.0039
     16 C         143.9941  138.9702  164.3086 C.3     1  UNL1        0.0788
     17 C         144.3290  141.9008  164.8557 C.1     1  UNL1       -0.0911
     18 C         144.1616  140.4356  164.5821 C.1     1  UNL1       -0.0910
     19 C         143.8235  144.3755  164.2470 C.3     1  UNL1        0.0150
     20 C         144.4964  143.3661  165.1292 C.3     1  UNL1        0.0761
     21 C         140.8613  142.5321  165.7226 C.3     1  UNL1        0.0938
     22 C         140.5143  141.5714  166.8211 C.3     1  UNL1        0.0215
     23 C         141.2838  140.2924  166.9697 C.3     1  UNL1        0.0018
     24 C         142.5360  140.2621  167.7950 C.3     1  UNL1        0.0004
     25 C         142.4497  140.3230  169.2913 C.3     1  UNL1        0.0059
     26 C         141.4151  139.5145  170.0165 C.3     1  UNL1        0.0417
     27 C         140.3354  140.2042  170.7964 C.2     1  UNL1        0.0503
     28 O         140.6966  141.2041  171.8546 O.co2   1  UNL1       -0.5492
     29 O         138.8944  139.8941  170.5183 O.co2   1  UNL1       -0.5492
@<TRIPOS>UNITY_ATOM_ATTR
28 1
charge -1
@<TRIPOS>BOND
     1    19    20    1
     2    20    17    1
     3    17    18    3
     4    18    16    1
     5    16    14    1
     6    14    15    1
     7    14    11    1
     8    11    12    1
     9    11     9    1
    10     9    10    2
    11     1    10    1
    12     1     2    1
    13     2     3    1
    14     3     4    1
    15     3     5    1
    16     3     6    1
    17     6     7    2
    18     6     8   am
    19     8    21    1
    20    21    22    1
    21    22    23    1
    22    23    24    1
    23    24    25    1
    24    25    26    1
    25    26    27    1
    26    27    28   ar
    27    27    29   ar
    28     8     1    1
    29    12    13    1
