@<TRIPOS>MOLECULE
*****
 32 35 0 0 0
SMALL
GASTEIGER

@<TRIPOS>ATOM
      1 C         140.0004  140.6781  168.2400 C.ar    1  UNL1        0.0327
      2 C         139.9800  140.6232  166.7412 C.ar    1  UNL1        0.0044
      3 C         138.9566  139.7838  166.0354 C.ar    1  UNL1        0.0193
      4 C         137.9537  138.9995  166.8283 C.ar    1  UNL1        0.1002
      5 N         137.9741  139.0544  168.3271 N.ar    1  UNL1       -0.2296
      6 C         138.9975  139.8938  169.0330 C.ar    1  UNL1        0.1254
      7 N         139.0179  139.9487  170.5319 N.pl3   1  UNL1       -0.3426
      8 H         138.3596  139.4339  171.0524 H       1  UNL1        0.1437
      9 H         139.6895  140.4996  170.9952 H       1  UNL1        0.1437
     10 C         143.0705  143.1961  170.3576 C.ar    1  UNL1        0.2250
     11 C         143.4717  141.8939  169.7305 C.ar    1  UNL1        0.0577
     12 C         142.4484  141.0546  169.0247 C.ar    1  UNL1        0.0064
     13 C         141.0238  141.5175  168.9459 C.ar    1  UNL1        0.0221
     14 C         140.6225  142.8196  169.5730 C.ar    1  UNL1        0.1021
     15 N         141.6459  143.6590  170.2788 N.ar    1  UNL1       -0.2101
     16 C         145.5488  143.8795  170.7334 C.3     1  UNL1        0.2542
     17 O         144.0939  144.0355  171.0635 O.3     1  UNL1       -0.4561
     18 C         138.9362  139.7289  164.5364 C.ar    1  UNL1        0.0016
     19 C         139.0714  140.9913  163.7378 C.ar    1  UNL1        0.0014
     20 C         139.0510  140.9364  162.2389 C.ar    1  UNL1        0.0199
     21 C         138.8954  139.6189  161.5387 C.ar    1  UNL1        0.1222
     22 C         138.7603  138.3565  162.3375 C.ar    1  UNL1        0.0199
     23 C         138.7807  138.4114  163.8363 C.ar    1  UNL1        0.0014
     24 S         138.8750  139.5639  160.0399 S.O2    1  UNL1        0.0634
     25 O         138.0232  140.7981  160.0062 O.2     1  UNL1       -0.1528
     26 O         139.7268  138.3298  160.0736 O.2     1  UNL1       -0.1528
     27 N         138.8546  139.5090  158.5411 N.3     1  UNL1       -0.1504
     28 C         139.6448  138.4586  157.8183 C.3     1  UNL1        0.1279
     29 C         139.6244  138.4036  156.3194 C.3     1  UNL1        0.1613
     30 O         138.8139  139.3989  155.5434 O.3     1  UNL1       -0.3507
     31 C         138.0237  140.4492  156.2661 C.3     1  UNL1        0.1613
     32 C         138.0440  140.5043  157.7650 C.3     1  UNL1        0.1279
@<TRIPOS>BOND
     1    16    17    1
     2    17    10    1
     3    10    11   ar
     4    11    12   ar
     5    12    13   ar
     6    13     1    1
     7     1     2   ar
     8     2     3   ar
     9     3    18    1
    10    18    19   ar
    11    19    20   ar
    12    20    21   ar
    13    21    24    1
    14    24    25    2
    15    24    26    2
    16    24    27    1
    17    27    28    1
    18    28    29    1
    19    29    30    1
    20    30    31    1
    21    31    32    1
    22    21    22   ar
    23    22    23   ar
    24     3     4   ar
    25     4     5   ar
    26     5     6   ar
    27     6     7    1
    28    13    14   ar
    29    14    15   ar
    30    15    10   ar
    31     6     1   ar
    32    23    18   ar
    33    32    27    1
    34     7     8    1
    35     7     9    1
@<TRIPOS>MOLECULE
*****
 32 35 0 0 0
SMALL
GASTEIGER

@<TRIPOS>ATOM
      1 C         142.5514  143.5492  159.2430 C.ar    1  UNL1        0.0327
      2 C         142.1941  143.4287  160.6948 C.ar    1  UNL1        0.0044
      3 C         143.1564  142.7929  161.6538 C.ar    1  UNL1        0.0193
      4 C         144.4761  142.2776  161.1610 C.ar    1  UNL1        0.1002
      5 N         144.8334  142.3981  159.7092 N.ar    1  UNL1       -0.2296
      6 C         143.8711  143.0339  158.7502 C.ar    1  UNL1        0.1254
      7 N         144.2285  143.1544  157.2984 N.pl3   1  UNL1       -0.3426
      8 H         145.0947  142.8162  156.9750 H       1  UNL1        0.1437
      9 H         143.5969  143.5717  156.6689 H       1  UNL1        0.1437
     10 C         139.6645  145.4566  156.3660 C.ar    1  UNL1        0.2250
     11 C         140.7388  146.2828  157.0087 C.ar    1  UNL1        0.0577
     12 C         141.7011  145.6470  157.9678 C.ar    1  UNL1        0.0064
     13 C         141.5891  144.1850  158.2840 C.ar    1  UNL1        0.0221
     14 C         140.5147  143.3589  157.6413 C.ar    1  UNL1        0.1021
     15 N         139.5524  143.9947  156.6822 N.ar    1  UNL1       -0.2101
     16 C         138.8918  147.5209  154.9907 C.3     1  UNL1        0.2542
     17 O         138.7022  146.0924  155.4070 O.3     1  UNL1       -0.4561
     18 C         142.7990  142.6724  163.1057 C.ar    1  UNL1        0.0016
     19 C         141.3662  142.4966  163.5132 C.ar    1  UNL1        0.0014
     20 C         141.0087  142.3761  164.9651 C.ar    1  UNL1        0.0199
     21 C         142.0842  142.4314  166.0093 C.ar    1  UNL1        0.1222
     22 C         143.5170  142.6072  165.6017 C.ar    1  UNL1        0.0199
     23 C         143.8744  142.7277  164.1499 C.ar    1  UNL1        0.0014
     24 S         141.7268  142.3109  167.4611 S.O2    1  UNL1        0.0634
     25 O         143.1798  142.3898  167.8253 O.2     1  UNL1       -0.1528
     26 O         140.2739  142.2320  167.0969 O.2     1  UNL1       -0.1528
     27 N         141.3695  142.1904  168.9129 N.3     1  UNL1       -0.1504
     28 C         140.2729  143.0370  169.4881 C.3     1  UNL1        0.1279
     29 C         139.9155  142.9165  170.9399 C.3     1  UNL1        0.1613
     30 O         140.6547  141.9495  171.8165 O.3     1  UNL1       -0.3507
     31 C         141.7512  141.1029  171.2413 C.3     1  UNL1        0.1613
     32 C         142.1086  141.2234  169.7895 C.3     1  UNL1        0.1279
@<TRIPOS>BOND
     1    16    17    1
     2    17    10    1
     3    10    11   ar
     4    11    12   ar
     5    12    13   ar
     6    13     1    1
     7     1     2   ar
     8     2     3   ar
     9     3    18    1
    10    18    19   ar
    11    19    20   ar
    12    20    21   ar
    13    21    24    1
    14    24    25    2
    15    24    26    2
    16    24    27    1
    17    27    28    1
    18    28    29    1
    19    29    30    1
    20    30    31    1
    21    31    32    1
    22    21    22   ar
    23    22    23   ar
    24     3     4   ar
    25     4     5   ar
    26     5     6   ar
    27     6     7    1
    28    13    14   ar
    29    14    15   ar
    30    15    10   ar
    31     6     1   ar
    32    23    18   ar
    33    32    27    1
    34     7     8    1
    35     7     9    1
@<TRIPOS>MOLECULE
*****
 32 35 0 0 0
SMALL
GASTEIGER

@<TRIPOS>ATOM
      1 C         140.2413  143.3370  164.3785 C.ar    1  UNL1        0.0327
      2 C         141.1605  142.9827  163.2474 C.ar    1  UNL1        0.0044
      3 C         141.2715  143.8907  162.0586 C.ar    1  UNL1        0.0193
      4 C         140.4633  145.1530  162.0009 C.ar    1  UNL1        0.1002
      5 N         139.5441  145.5073  163.1320 N.ar    1  UNL1       -0.2296
      6 C         139.4331  144.5993  164.3208 C.ar    1  UNL1        0.1254
      7 N         138.5138  144.9537  165.4520 N.pl3   1  UNL1       -0.3426
      8 H         137.9833  145.7822  165.4141 H       1  UNL1        0.1437
      9 H         138.4409  144.3578  166.2322 H       1  UNL1        0.1437
     10 C         139.9082  140.6131  167.9449 C.ar    1  UNL1        0.2250
     11 C         140.7056  141.8799  168.0406 C.ar    1  UNL1        0.0577
     12 C         140.8166  142.7879  166.8518 C.ar    1  UNL1        0.0064
     13 C         140.1303  142.4291  165.5673 C.ar    1  UNL1        0.0221
     14 C         139.3329  141.1622  165.4716 C.ar    1  UNL1        0.1021
     15 N         139.2219  140.2542  166.6604 N.ar    1  UNL1       -0.2101
     16 C         140.7453  139.8585  170.2858 C.3     1  UNL1        0.2542
     17 O         139.7972  139.7051  169.1337 O.3     1  UNL1       -0.4561
     18 C         142.1908  143.5363  160.9275 C.ar    1  UNL1        0.0016
     19 C         141.8151  143.8858  159.5180 C.ar    1  UNL1        0.0014
     20 C         142.7344  143.5314  158.3869 C.ar    1  UNL1        0.0199
     21 C         144.0294  142.8276  158.6653 C.ar    1  UNL1        0.1222
     22 C         144.4051  142.4782  160.0748 C.ar    1  UNL1        0.0199
     23 C         143.4859  142.8325  161.2059 C.ar    1  UNL1        0.0014
     24 S         144.9487  142.4732  157.5342 S.O2    1  UNL1        0.0634
     25 O         146.1314  142.8415  158.3801 O.2     1  UNL1       -0.1528
     26 O         143.7660  142.1049  156.6884 O.2     1  UNL1       -0.1528
     27 N         145.8679  142.1189  156.4032 N.3     1  UNL1       -0.1504
     28 C         147.3276  142.4535  156.4900 C.3     1  UNL1        0.1279
     29 C         148.2469  142.0991  155.3590 C.3     1  UNL1        0.1613
     30 O         147.7066  141.4101  154.1411 O.3     1  UNL1       -0.3507
     31 C         146.2470  141.0755  154.0542 C.3     1  UNL1        0.1613
     32 C         145.3276  141.4299  155.1853 C.3     1  UNL1        0.1279
@<TRIPOS>BOND
     1    16    17    1
     2    17    10    1
     3    10    11   ar
     4    11    12   ar
     5    12    13   ar
     6    13     1    1
     7     1     2   ar
     8     2     3   ar
     9     3    18    1
    10    18    19   ar
    11    19    20   ar
    12    20    21   ar
    13    21    24    1
    14    24    25    2
    15    24    26    2
    16    24    27    1
    17    27    28    1
    18    28    29    1
    19    29    30    1
    20    30    31    1
    21    31    32    1
    22    21    22   ar
    23    22    23   ar
    24     3     4   ar
    25     4     5   ar
    26     5     6   ar
    27     6     7    1
    28    13    14   ar
    29    14    15   ar
    30    15    10   ar
    31     6     1   ar
    32    23    18   ar
    33    32    27    1
    34     7     8    1
    35     7     9    1
@<TRIPOS>MOLECULE
*****
 32 35 0 0 0
SMALL
GASTEIGER

@<TRIPOS>ATOM
      1 C         141.3718  141.9495  167.2747 C.ar    1  UNL1        0.0327
      2 C         140.9779  142.3344  165.8795 C.ar    1  UNL1        0.0044
      3 C         141.9921  142.9370  164.9531 C.ar    1  UNL1        0.0193
      4 C         143.4002  143.1547  165.4218 C.ar    1  UNL1        0.1002
      5 N         143.7941  142.7698  166.8170 N.ar    1  UNL1       -0.2296
      6 C         142.7799  142.1672  167.7434 C.ar    1  UNL1        0.1254
      7 N         143.1739  141.7822  169.1387 N.pl3   1  UNL1       -0.3426
      8 H         144.0982  141.9251  169.4464 H       1  UNL1        0.1437
      9 H         142.5083  141.3867  169.7468 H       1  UNL1        0.1437
     10 C         138.3293  140.1415  170.0540 C.ar    1  UNL1        0.2250
     11 C         139.0365  141.4075  170.4374 C.ar    1  UNL1        0.0577
     12 C         140.0507  142.0102  169.5109 C.ar    1  UNL1        0.0064
     13 C         140.3577  141.3468  168.2011 C.ar    1  UNL1        0.0221
     14 C         139.6504  140.0809  167.8177 C.ar    1  UNL1        0.1021
     15 N         138.6362  139.4782  168.7441 N.ar    1  UNL1       -0.2101
     16 C         136.5668  138.3046  170.5726 C.3     1  UNL1        0.2542
     17 O         137.3151  139.5389  170.9804 O.3     1  UNL1       -0.4561
     18 C         141.5981  143.3220  163.5578 C.ar    1  UNL1        0.0016
     19 C         141.1604  142.2681  162.5843 C.ar    1  UNL1        0.0014
     20 C         140.7664  142.6530  161.1891 C.ar    1  UNL1        0.0199
     21 C         140.8101  144.0919  160.7674 C.ar    1  UNL1        0.1222
     22 C         141.2479  145.1458  161.7409 C.ar    1  UNL1        0.0199
     23 C         141.6418  144.7608  163.1361 C.ar    1  UNL1        0.0014
     24 S         140.4162  144.4768  159.3722 S.O2    1  UNL1        0.0634
     25 O         139.2020  143.6019  159.4736 O.2     1  UNL1       -0.1528
     26 O         141.6303  145.3518  159.2708 O.2     1  UNL1       -0.1528
     27 N         140.0222  144.8618  157.9770 N.3     1  UNL1       -0.1504
     28 C         140.1582  146.2857  157.5251 C.3     1  UNL1        0.1279
     29 C         139.7643  146.6707  156.1300 C.3     1  UNL1        0.1613
     30 O         139.2342  145.6318  155.1866 O.3     1  UNL1       -0.3507
     31 C         139.0982  144.2080  155.6385 C.3     1  UNL1        0.1613
     32 C         139.4922  143.8230  157.0337 C.3     1  UNL1        0.1279
@<TRIPOS>BOND
     1    16    17    1
     2    17    10    1
     3    10    11   ar
     4    11    12   ar
     5    12    13   ar
     6    13     1    1
     7     1     2   ar
     8     2     3   ar
     9     3    18    1
    10    18    19   ar
    11    19    20   ar
    12    20    21   ar
    13    21    24    1
    14    24    25    2
    15    24    26    2
    16    24    27    1
    17    27    28    1
    18    28    29    1
    19    29    30    1
    20    30    31    1
    21    31    32    1
    22    21    22   ar
    23    22    23   ar
    24     3     4   ar
    25     4     5   ar
    26     5     6   ar
    27     6     7    1
    28    13    14   ar
    29    14    15   ar
    30    15    10   ar
    31     6     1   ar
    32    23    18   ar
    33    32    27    1
    34     7     8    1
    35     7     9    1
@<TRIPOS>MOLECULE
*****
 32 35 0 0 0
SMALL
GASTEIGER

@<TRIPOS>ATOM
      1 C         143.6168  140.7529  163.3463 C.ar    1  UNL1        0.0327
      2 C         142.5059  140.6009  162.3500 C.ar    1  UNL1        0.0044
      3 C         142.6904  141.0832  160.9416 C.ar    1  UNL1        0.0193
      4 C         143.9858  141.7174  160.5297 C.ar    1  UNL1        0.1002
      5 N         145.0967  141.8693  161.5261 N.ar    1  UNL1       -0.2296
      6 C         144.9122  141.3871  162.9344 C.ar    1  UNL1        0.1254
      7 N         146.0231  141.5391  163.9308 N.pl3   1  UNL1       -0.3426
      8 H         146.8733  141.9554  163.6604 H       1  UNL1        0.1437
      9 H         145.9021  141.2226  164.8551 H       1  UNL1        0.1437
     10 C         143.0634  139.3061  167.5713 C.ar    1  UNL1        0.2250
     11 C         143.5900  138.3727  166.5219 C.ar    1  UNL1        0.0577
     12 C         143.7745  138.8550  165.1136 C.ar    1  UNL1        0.0064
     13 C         143.4323  140.2706  164.7547 C.ar    1  UNL1        0.0221
     14 C         142.9057  141.2040  165.8041 C.ar    1  UNL1        0.1021
     15 N         142.7212  140.7218  167.2124 N.ar    1  UNL1       -0.2101
     16 C         142.2959  139.7389  170.0154 C.3     1  UNL1        0.2542
     17 O         142.8789  138.8239  168.9797 O.3     1  UNL1       -0.4561
     18 C         141.5795  140.9311  159.9452 C.ar    1  UNL1        0.0016
     19 C         141.8801  140.4623  158.5525 C.ar    1  UNL1        0.0014
     20 C         140.7691  140.3103  157.5561 C.ar    1  UNL1        0.0199
     21 C         139.3576  140.6272  157.9525 C.ar    1  UNL1        0.1222
     22 C         139.0570  141.0961  159.3453 C.ar    1  UNL1        0.0199
     23 C         140.1679  141.2481  160.3416 C.ar    1  UNL1        0.0014
     24 S         138.2466  140.4752  156.9562 S.O2    1  UNL1        0.0634
     25 O         137.2639  140.3094  158.0772 O.2     1  UNL1       -0.1528
     26 O         139.2293  140.6409  155.8352 O.2     1  UNL1       -0.1528
     27 N         137.1357  140.3232  155.9599 N.3     1  UNL1       -0.1504
     28 C         135.8239  141.0139  156.1881 C.3     1  UNL1        0.1279
     29 C         134.7129  140.8620  155.1918 C.3     1  UNL1        0.1613
     30 O         134.9138  140.0193  153.9672 O.3     1  UNL1       -0.3507
     31 C         136.2255  139.3286  153.7390 C.3     1  UNL1        0.1613
     32 C         137.3365  139.4805  154.7353 C.3     1  UNL1        0.1279
@<TRIPOS>BOND
     1    16    17    1
     2    17    10    1
     3    10    11   ar
     4    11    12   ar
     5    12    13   ar
     6    13     1    1
     7     1     2   ar
     8     2     3   ar
     9     3    18    1
    10    18    19   ar
    11    19    20   ar
    12    20    21   ar
    13    21    24    1
    14    24    25    2
    15    24    26    2
    16    24    27    1
    17    27    28    1
    18    28    29    1
    19    29    30    1
    20    30    31    1
    21    31    32    1
    22    21    22   ar
    23    22    23   ar
    24     3     4   ar
    25     4     5   ar
    26     5     6   ar
    27     6     7    1
    28    13    14   ar
    29    14    15   ar
    30    15    10   ar
    31     6     1   ar
    32    23    18   ar
    33    32    27    1
    34     7     8    1
    35     7     9    1
@<TRIPOS>MOLECULE
*****
 32 35 0 0 0
SMALL
GASTEIGER

@<TRIPOS>ATOM
      1 C         140.5415  139.0242  163.5483 C.ar    1  UNL1        0.0327
      2 C         140.4125  140.1379  162.5519 C.ar    1  UNL1        0.0044
      3 C         140.8475  139.9279  161.1318 C.ar    1  UNL1        0.0193
      4 C         141.4116  138.6041  160.7082 C.ar    1  UNL1        0.1002
      5 N         141.5406  137.4904  161.7047 N.ar    1  UNL1       -0.2296
      6 C         141.1055  137.7005  163.1247 C.ar    1  UNL1        0.1254
      7 N         141.2346  136.5867  164.1212 N.pl3   1  UNL1       -0.3426
      8 H         141.6048  135.7179  163.8432 H       1  UNL1        0.1437
      9 H         140.9490  136.7246  165.0533 H       1  UNL1        0.1437
     10 C         139.2363  139.6544  167.8085 C.ar    1  UNL1        0.2250
     11 C         138.2931  139.0378  166.8186 C.ar    1  UNL1        0.0577
     12 C         138.7281  138.8277  165.3985 C.ar    1  UNL1        0.0064
     13 C         140.1064  139.2343  164.9684 C.ar    1  UNL1        0.0221
     14 C         141.0496  139.8509  165.9584 C.ar    1  UNL1        0.1021
     15 N         140.6145  140.0610  167.3784 N.ar    1  UNL1       -0.2101
     16 C         139.8159  140.1940  170.2830 C.3     1  UNL1        0.2542
     17 O         138.8012  139.8645  169.2286 O.3     1  UNL1       -0.4561
     18 C         140.7185  141.0417  160.1353 C.ar    1  UNL1        0.0016
     19 C         141.8780  141.3960  159.2522 C.ar    1  UNL1        0.0014
     20 C         141.7490  142.5097  158.2557 C.ar    1  UNL1        0.0199
     21 C         140.4604  143.2692  158.1424 C.ar    1  UNL1        0.1222
     22 C         139.3009  142.9148  159.0256 C.ar    1  UNL1        0.0199
     23 C         139.4299  141.8011  160.0220 C.ar    1  UNL1        0.0014
     24 S         140.3314  144.3829  157.1460 S.O2    1  UNL1        0.0634
     25 O         138.9225  143.9587  156.8543 O.2     1  UNL1       -0.1528
     26 O         141.7402  144.8071  157.4376 O.2     1  UNL1       -0.1528
     27 N         140.2023  145.4966  156.1495 N.3     1  UNL1       -0.1504
     28 C         139.3289  146.6776  156.4536 C.3     1  UNL1        0.1279
     29 C         139.1998  147.7914  155.4572 C.3     1  UNL1        0.1613
     30 O         139.9442  147.7242  154.1567 O.3     1  UNL1       -0.3507
     31 C         140.8176  146.5433  153.8525 C.3     1  UNL1        0.1613
     32 C         140.9467  145.4294  154.8490 C.3     1  UNL1        0.1279
@<TRIPOS>BOND
     1    16    17    1
     2    17    10    1
     3    10    11   ar
     4    11    12   ar
     5    12    13   ar
     6    13     1    1
     7     1     2   ar
     8     2     3   ar
     9     3    18    1
    10    18    19   ar
    11    19    20   ar
    12    20    21   ar
    13    21    24    1
    14    24    25    2
    15    24    26    2
    16    24    27    1
    17    27    28    1
    18    28    29    1
    19    29    30    1
    20    30    31    1
    21    31    32    1
    22    21    22   ar
    23    22    23   ar
    24     3     4   ar
    25     4     5   ar
    26     5     6   ar
    27     6     7    1
    28    13    14   ar
    29    14    15   ar
    30    15    10   ar
    31     6     1   ar
    32    23    18   ar
    33    32    27    1
    34     7     8    1
    35     7     9    1
@<TRIPOS>MOLECULE
*****
 32 35 0 0 0
SMALL
GASTEIGER

@<TRIPOS>ATOM
      1 C         140.2975  139.7479  158.9714 C.ar    1  UNL1        0.0327
      2 C         140.4752  139.9628  160.4452 C.ar    1  UNL1        0.0044
      3 C         139.2763  140.1657  161.3235 C.ar    1  UNL1        0.0193
      4 C         137.8997  140.1536  160.7280 C.ar    1  UNL1        0.1002
      5 N         137.7220  139.9387  159.2542 N.ar    1  UNL1       -0.2296
      6 C         138.9209  139.7359  158.3759 C.ar    1  UNL1        0.1254
      7 N         138.7431  139.5210  156.9020 N.pl3   1  UNL1       -0.3426
      8 H         137.8396  139.5131  156.5111 H       1  UNL1        0.1437
      9 H         139.5300  139.3878  156.3255 H       1  UNL1        0.1437
     10 C         143.8943  139.1393  156.3365 C.ar    1  UNL1        0.2250
     11 C         143.3289  140.5154  156.5277 C.ar    1  UNL1        0.0577
     12 C         142.1299  140.7183  157.4060 C.ar    1  UNL1        0.0064
     13 C         141.4965  139.5451  158.0931 C.ar    1  UNL1        0.0221
     14 C         142.0619  138.1690  157.9019 C.ar    1  UNL1        0.1021
     15 N         143.2608  137.9661  157.0236 N.ar    1  UNL1       -0.2101
     16 C         145.3201  139.8357  154.2792 C.3     1  UNL1        0.2542
     17 O         145.0933  138.9365  155.4582 O.3     1  UNL1       -0.4561
     18 C         139.4540  140.3806  162.7974 C.ar    1  UNL1        0.0016
     19 C         140.8171  140.6656  163.3547 C.ar    1  UNL1        0.0014
     20 C         140.9949  140.8805  164.8286 C.ar    1  UNL1        0.0199
     21 C         139.8095  140.8104  165.7451 C.ar    1  UNL1        0.1222
     22 C         138.4463  140.5253  165.1877 C.ar    1  UNL1        0.0199
     23 C         138.2687  140.3104  163.7139 C.ar    1  UNL1        0.0014
     24 S         139.9872  141.0252  167.2189 S.O2    1  UNL1        0.0634
     25 O         140.4387  142.4319  166.9594 O.2     1  UNL1       -0.1528
     26 O         139.5357  139.6186  167.4785 O.2     1  UNL1       -0.1528
     27 N         140.1649  141.2401  168.6928 N.3     1  UNL1       -0.1504
     28 C         140.3921  140.0671  169.5997 C.3     1  UNL1        0.1279
     29 C         140.5698  140.2820  171.0736 C.3     1  UNL1        0.1613
     30 O         140.5203  141.6699  171.6405 O.3     1  UNL1       -0.3507
     31 C         140.2931  142.8428  170.7336 C.3     1  UNL1        0.1613
     32 C         140.1154  142.6280  169.2597 C.3     1  UNL1        0.1279
@<TRIPOS>BOND
     1    16    17    1
     2    17    10    1
     3    10    11   ar
     4    11    12   ar
     5    12    13   ar
     6    13     1    1
     7     1     2   ar
     8     2     3   ar
     9     3    18    1
    10    18    19   ar
    11    19    20   ar
    12    20    21   ar
    13    21    24    1
    14    24    25    2
    15    24    26    2
    16    24    27    1
    17    27    28    1
    18    28    29    1
    19    29    30    1
    20    30    31    1
    21    31    32    1
    22    21    22   ar
    23    22    23   ar
    24     3     4   ar
    25     4     5   ar
    26     5     6   ar
    27     6     7    1
    28    13    14   ar
    29    14    15   ar
    30    15    10   ar
    31     6     1   ar
    32    23    18   ar
    33    32    27    1
    34     7     8    1
    35     7     9    1
@<TRIPOS>MOLECULE
*****
 32 35 0 0 0
SMALL
GASTEIGER

@<TRIPOS>ATOM
      1 C         142.8574  142.7279  163.6392 C.ar    1  UNL1        0.0327
      2 C         142.5816  141.6643  162.6181 C.ar    1  UNL1        0.0044
      3 C         143.2166  141.7444  161.2615 C.ar    1  UNL1        0.0193
      4 C         144.1273  142.8880  160.9260 C.ar    1  UNL1        0.1002
      5 N         144.4031  143.9516  161.9471 N.ar    1  UNL1       -0.2296
      6 C         143.7681  143.8715  163.3037 C.ar    1  UNL1        0.1254
      7 N         144.0439  144.9352  164.3249 N.pl3   1  UNL1       -0.3426
      8 H         144.6417  145.6858  164.1046 H       1  UNL1        0.1437
      9 H         143.6272  144.8826  165.2153 H       1  UNL1        0.1437
     10 C         140.9526  142.4877  167.7091 C.ar    1  UNL1        0.2250
     11 C         142.3186  141.9100  167.4851 C.ar    1  UNL1        0.0577
     12 C         142.9535  141.9901  166.1285 C.ar    1  UNL1        0.0064
     13 C         142.2225  142.6478  164.9959 C.ar    1  UNL1        0.0221
     14 C         140.8564  143.2255  165.2199 C.ar    1  UNL1        0.1021
     15 N         140.2215  143.1454  166.5765 N.ar    1  UNL1       -0.2101
     16 C         140.3626  143.5913  169.9859 C.3     1  UNL1        0.2542
     17 O         140.3176  142.4076  169.0657 O.3     1  UNL1       -0.4561
     18 C         142.9407  140.6807  160.2404 C.ar    1  UNL1        0.0016
     19 C         142.7577  141.0541  158.7992 C.ar    1  UNL1        0.0014
     20 C         142.4819  139.9904  157.7780 C.ar    1  UNL1        0.0199
     21 C         142.3891  138.5535  158.1982 C.ar    1  UNL1        0.1222
     22 C         142.5721  138.1801  159.6395 C.ar    1  UNL1        0.0199
     23 C         142.8479  139.2438  160.6605 C.ar    1  UNL1        0.0014
     24 S         142.1133  137.4898  157.1771 S.O2    1  UNL1        0.0634
     25 O         143.5825  137.3786  156.8961 O.2     1  UNL1       -0.1528
     26 O         140.6441  137.6010  157.4582 O.2     1  UNL1       -0.1528
     27 N         141.8375  136.4262  156.1561 N.3     1  UNL1       -0.1504
     28 C         140.9967  136.7403  154.9542 C.3     1  UNL1        0.1279
     29 C         140.7209  135.6767  153.9331 C.3     1  UNL1        0.1613
     30 O         141.2858  134.2989  154.1139 O.3     1  UNL1       -0.3507
     31 C         142.1266  133.9848  155.3157 C.3     1  UNL1        0.1613
     32 C         142.4024  135.0485  156.3369 C.3     1  UNL1        0.1279
@<TRIPOS>BOND
     1    16    17    1
     2    17    10    1
     3    10    11   ar
     4    11    12   ar
     5    12    13   ar
     6    13     1    1
     7     1     2   ar
     8     2     3   ar
     9     3    18    1
    10    18    19   ar
    11    19    20   ar
    12    20    21   ar
    13    21    24    1
    14    24    25    2
    15    24    26    2
    16    24    27    1
    17    27    28    1
    18    28    29    1
    19    29    30    1
    20    30    31    1
    21    31    32    1
    22    21    22   ar
    23    22    23   ar
    24     3     4   ar
    25     4     5   ar
    26     5     6   ar
    27     6     7    1
    28    13    14   ar
    29    14    15   ar
    30    15    10   ar
    31     6     1   ar
    32    23    18   ar
    33    32    27    1
    34     7     8    1
    35     7     9    1
@<TRIPOS>MOLECULE
*****
 32 35 0 0 0
SMALL
GASTEIGER

@<TRIPOS>ATOM
      1 C         139.1118  142.0341  164.0345 C.ar    1  UNL1        0.0327
      2 C         139.6103  141.1086  162.9646 C.ar    1  UNL1        0.0044
      3 C         139.2103  141.3292  161.5359 C.ar    1  UNL1        0.0193
      4 C         138.3118  142.4754  161.1770 C.ar    1  UNL1        0.1002
      5 N         137.8132  143.4009  162.2469 N.ar    1  UNL1       -0.2296
      6 C         138.2133  143.1803  163.6757 C.ar    1  UNL1        0.1254
      7 N         137.7147  144.1059  164.7456 N.pl3   1  UNL1       -0.3426
      8 H         137.1249  144.8582  164.5101 H       1  UNL1        0.1437
      9 H         137.9772  143.9612  165.6834 H       1  UNL1        0.1437
     10 C         140.3119  141.3722  168.3207 C.ar    1  UNL1        0.2250
     11 C         139.5172  140.3277  167.5946 C.ar    1  UNL1        0.0577
     12 C         139.1171  140.5484  166.1658 C.ar    1  UNL1        0.0064
     13 C         139.5118  141.8135  165.4633 C.ar    1  UNL1        0.0221
     14 C         140.3066  142.8580  166.1894 C.ar    1  UNL1        0.1021
     15 N         140.7066  142.6374  167.6182 N.ar    1  UNL1       -0.2101
     16 C         141.6170  140.0103  170.1072 C.3     1  UNL1        0.2542
     17 O         140.7119  141.1516  169.7495 O.3     1  UNL1       -0.4561
     18 C         139.7089  140.4035  160.4659 C.ar    1  UNL1        0.0016
     19 C         138.8377  140.0796  159.2887 C.ar    1  UNL1        0.0014
     20 C         139.3363  139.1540  158.2187 C.ar    1  UNL1        0.0199
     21 C         140.7061  138.5523  158.3261 C.ar    1  UNL1        0.1222
     22 C         141.5773  138.8763  159.5035 C.ar    1  UNL1        0.0199
     23 C         141.0787  139.8018  160.5733 C.ar    1  UNL1        0.0014
     24 S         141.2047  137.6267  157.2563 S.O2    1  UNL1        0.0634
     25 O         139.7945  137.3920  156.8022 O.2     1  UNL1       -0.1528
     26 O         142.6148  137.8615  157.7104 O.2     1  UNL1       -0.1528
     27 N         141.7033  136.7011  156.1864 N.3     1  UNL1       -0.1504
     28 C         140.8620  136.4346  154.9734 C.3     1  UNL1        0.1279
     29 C         141.3606  135.5090  153.9036 C.3     1  UNL1        0.1613
     30 O         142.7005  134.8499  154.0467 O.3     1  UNL1       -0.3507
     31 C         143.5417  135.1164  155.2596 C.3     1  UNL1        0.1613
     32 C         143.0431  136.0420  156.3295 C.3     1  UNL1        0.1279
@<TRIPOS>BOND
     1    16    17    1
     2    17    10    1
     3    10    11   ar
     4    11    12   ar
     5    12    13   ar
     6    13     1    1
     7     1     2   ar
     8     2     3   ar
     9     3    18    1
    10    18    19   ar
    11    19    20   ar
    12    20    21   ar
    13    21    24    1
    14    24    25    2
    15    24    26    2
    16    24    27    1
    17    27    28    1
    18    28    29    1
    19    29    30    1
    20    30    31    1
    21    31    32    1
    22    21    22   ar
    23    22    23   ar
    24     3     4   ar
    25     4     5   ar
    26     5     6   ar
    27     6     7    1
    28    13    14   ar
    29    14    15   ar
    30    15    10   ar
    31     6     1   ar
    32    23    18   ar
    33    32    27    1
    34     7     8    1
    35     7     9    1
