@<TRIPOS>MOLECULE
*****
 40 45 0 0 0
SMALL
GASTEIGER

@<TRIPOS>ATOM
      1 C         142.7950  135.7205  157.6531 C.ar    1  UNL1        0.2400
      2 N         142.2148  135.2508  156.3521 N.ar    1  UNL1       -0.2090
      3 C         141.4837  136.2147  155.4654 C.ar    1  UNL1        0.1021
      4 C         141.1529  137.7162  155.5796 C.ar    1  UNL1        0.0207
      5 C         141.9247  137.1863  156.7516 C.ar    1  UNL1        0.0221
      6 C         142.6441  137.1543  158.0674 C.ar    1  UNL1        0.1178
      7 N         143.2243  137.6241  159.3684 N.pl3   1  UNL1       -0.2104
      8 S         143.5954  138.5391  160.4976 S.O2    1  UNL1        0.0737
      9 O         144.3424  138.3377  161.7827 O.2     1  UNL1       -0.1499
     10 O         144.0700  137.1298  160.6943 O.2     1  UNL1       -0.1499
     11 C         143.7125  139.7888  161.3190 C.ar    1  UNL1        0.1253
     12 C         144.4319  139.7568  162.6348 C.ar    1  UNL1        0.0202
     13 C         144.5490  141.0065  163.4560 C.ar    1  UNL1        0.0015
     14 C         143.9468  142.2882  162.9615 C.ar    1  UNL1        0.0046
     15 C         143.2274  142.3202  161.6456 C.ar    1  UNL1        0.0547
     16 C         143.1103  141.0705  160.8244 C.ar    1  UNL1        0.0247
     17 C         142.5586  143.9491  161.1959 C.2     1  UNL1        0.2462
     18 O         142.9297  144.8640  162.3251 O.2     1  UNL1       -0.2701
     19 N         141.8275  144.9129  160.3091 N.am    1  UNL1       -0.2957
     20 C         141.0557  145.4429  159.1372 C.3     1  UNL1        0.1360
     21 C         140.3363  145.4748  157.8213 C.ar    1  UNL1        0.0788
     22 C         139.7560  145.0050  156.5203 C.ar    1  UNL1        0.0165
     23 C         139.3850  144.0901  155.3911 C.ar    1  UNL1        0.0029
     24 C         138.8975  145.5388  155.1896 C.ar    1  UNL1        0.0207
     25 C         139.0146  146.7885  156.0109 C.ar    1  UNL1        0.0985
     26 N         139.7340  146.7565  157.3268 N.ar    1  UNL1       -0.2464
     27 C         139.2679  142.8404  154.5698 C.ar    1  UNL1        0.0031
     28 C         138.5367  143.8043  153.6830 C.ar    1  UNL1        0.0207
     29 C         137.9565  143.3344  152.3820 C.ar    1  UNL1        0.0988
     30 N         138.1074  141.9007  151.9677 N.ar    1  UNL1       -0.2438
     31 C         138.8386  140.9368  152.8546 C.ar    1  UNL1        0.0813
     32 C         139.0983  139.3070  152.5469 C.ar    1  UNL1        0.0191
     33 C         139.8150  138.2854  153.3791 C.ar    1  UNL1        0.0016
     34 C         140.4218  138.6801  154.6929 C.ar    1  UNL1        0.0016
     35 C         139.8195  139.9618  154.1983 C.ar    1  UNL1        0.0015
     36 C         139.4188  141.4066  154.1556 C.ar    1  UNL1        0.0177
     37 H         143.6196  136.7829  159.6930 H       1  UNL1        0.1739
     38 H         141.9044  145.7332  160.8482 H       1  UNL1        0.1501
     39 C         144.1116  133.5022  157.9623 C.3     1  UNL1        0.2543
     40 O         143.5261  134.7566  158.5398 O.3     1  UNL1       -0.4553
@<TRIPOS>BOND
     1    39    40    1
     2    40     1    1
     3     1     2   ar
     4     2     3   ar
     5     3     4   ar
     6     4     5   ar
     7     5     6   ar
     8     6     7    1
     9     7     8    1
    10     8     9    2
    11     8    10    2
    12     8    11    1
    13    11    12   ar
    14    12    13   ar
    15    13    14   ar
    16    14    15   ar
    17    15    16   ar
    18    15    17    1
    19    17    18    2
    20    17    19   am
    21    19    20    1
    22    20    21    1
    23    21    22   ar
    24    22    23   ar
    25    23    24   ar
    26    24    25   ar
    27    25    26   ar
    28    23    27    1
    29    27    28   ar
    30    28    29   ar
    31    29    30   ar
    32    30    31   ar
    33    31    32   ar
    34    32    33   ar
    35    33    34   ar
    36    34    35   ar
    37    35    36   ar
    38     6     1   ar
    39    16    11   ar
    40    26    21   ar
    41    36    27   ar
    42    34     4    1
    43    36    31   ar
    44     7    37    1
    45    19    38    1
@<TRIPOS>MOLECULE
*****
 40 45 0 0 0
SMALL
GASTEIGER

@<TRIPOS>ATOM
      1 C         140.2314  145.6935  154.8582 C.ar    1  UNL1        0.2400
      2 N         139.8352  146.8288  155.7549 N.ar    1  UNL1       -0.2090
      3 C         139.8582  146.6514  157.2442 C.ar    1  UNL1        0.1021
      4 C         140.2262  145.4701  158.1641 C.ar    1  UNL1        0.0207
      5 C         140.3657  145.1534  156.7045 C.ar    1  UNL1        0.0221
      6 C         140.6507  144.3808  155.4507 C.ar    1  UNL1        0.1178
      7 N         141.0469  143.2456  154.5540 N.pl3   1  UNL1       -0.2104
      8 S         141.5065  141.8845  154.1224 S.O2    1  UNL1        0.0737
      9 O         141.7460  141.2561  152.7817 O.2     1  UNL1       -0.1499
     10 O         141.2286  142.8094  152.9746 O.2     1  UNL1       -0.1499
     11 C         141.9742  140.4618  154.2081 C.ar    1  UNL1        0.1253
     12 C         142.2592  139.6893  152.9543 C.ar    1  UNL1        0.0202
     13 C         142.7268  138.2666  153.0400 C.ar    1  UNL1        0.0015
     14 C         142.9094  137.6165  154.3794 C.ar    1  UNL1        0.0046
     15 C         142.6244  138.3891  155.6332 C.ar    1  UNL1        0.0547
     16 C         142.1568  139.8117  155.5475 C.ar    1  UNL1        0.0247
     17 C         142.8962  137.4547  157.1680 C.2     1  UNL1        0.2462
     18 O         143.3559  136.0936  156.7365 O.2     1  UNL1       -0.2701
     19 N         142.9192  137.2773  158.6573 N.am    1  UNL1       -0.2957
     20 C         142.7798  137.5939  160.1168 C.3     1  UNL1        0.1360
     21 C         142.4948  138.3666  161.3706 C.ar    1  UNL1        0.0788
     22 C         142.0985  139.5018  162.2674 C.ar    1  UNL1        0.0165
     23 C         141.6389  140.8629  162.6989 C.ar    1  UNL1        0.0029
     24 C         141.9247  139.9117  163.8781 C.ar    1  UNL1        0.0207
     25 C         142.3924  138.4890  163.9638 C.ar    1  UNL1        0.0985
     26 N         142.6774  137.7165  162.7100 N.ar    1  UNL1       -0.2464
     27 C         141.1713  142.2855  162.6132 C.ar    1  UNL1        0.0031
     28 C         141.1942  142.1081  164.1026 C.ar    1  UNL1        0.0207
     29 C         140.7980  143.2434  164.9993 C.ar    1  UNL1        0.0988
     30 N         140.3788  144.5561  164.4068 N.ar    1  UNL1       -0.2438
     31 C         140.3558  144.7335  162.9174 C.ar    1  UNL1        0.0813
     32 C         139.9155  146.1269  162.0911 C.ar    1  UNL1        0.0191
     33 C         139.8673  146.3801  160.6134 C.ar    1  UNL1        0.0016
     34 C         140.2492  145.2926  159.6533 C.ar    1  UNL1        0.0016
     35 C         140.4318  144.6425  160.9927 C.ar    1  UNL1        0.0015
     36 C         140.7520  143.5982  162.0207 C.ar    1  UNL1        0.0177
     37 H         140.9270  143.6723  153.6749 H       1  UNL1        0.1739
     38 H         143.2261  136.3436  158.7135 H       1  UNL1        0.1501
     39 C         141.3294  146.5934  152.6822 C.3     1  UNL1        0.2543
     40 O         140.2084  145.8710  153.3689 O.3     1  UNL1       -0.4553
@<TRIPOS>BOND
     1    39    40    1
     2    40     1    1
     3     1     2   ar
     4     2     3   ar
     5     3     4   ar
     6     4     5   ar
     7     5     6   ar
     8     6     7    1
     9     7     8    1
    10     8     9    2
    11     8    10    2
    12     8    11    1
    13    11    12   ar
    14    12    13   ar
    15    13    14   ar
    16    14    15   ar
    17    15    16   ar
    18    15    17    1
    19    17    18    2
    20    17    19   am
    21    19    20    1
    22    20    21    1
    23    21    22   ar
    24    22    23   ar
    25    23    24   ar
    26    24    25   ar
    27    25    26   ar
    28    23    27    1
    29    27    28   ar
    30    28    29   ar
    31    29    30   ar
    32    30    31   ar
    33    31    32   ar
    34    32    33   ar
    35    33    34   ar
    36    34    35   ar
    37    35    36   ar
    38     6     1   ar
    39    16    11   ar
    40    26    21   ar
    41    36    27   ar
    42    34     4    1
    43    36    31   ar
    44     7    37    1
    45    19    38    1
@<TRIPOS>MOLECULE
*****
 40 45 0 0 0
SMALL
GASTEIGER

@<TRIPOS>ATOM
      1 C         139.2344  146.9928  156.8426 C.ar    1  UNL1        0.2400
      2 N         139.1246  146.9685  155.3469 N.ar    1  UNL1       -0.2090
      3 C         139.5097  145.7343  154.5865 C.ar    1  UNL1        0.1021
      4 C         140.0424  144.3515  155.0124 C.ar    1  UNL1        0.0207
      5 C         139.7999  145.2772  156.1676 C.ar    1  UNL1        0.0221
      6 C         139.7293  145.7826  157.5780 C.ar    1  UNL1        0.1178
      7 N         139.8391  145.8069  159.0738 N.pl3   1  UNL1       -0.2104
      8 S         140.1160  145.3469  160.4744 S.O2    1  UNL1        0.0737
      9 O         139.9862  146.0019  161.8176 O.2     1  UNL1       -0.1499
     10 O         139.6025  146.7544  160.4019 O.2     1  UNL1       -0.1499
     11 C         140.5267  144.4583  161.6110 C.ar    1  UNL1        0.1253
     12 C         140.4561  144.9637  163.0215 C.ar    1  UNL1        0.0202
     13 C         140.8668  144.0751  164.1580 C.ar    1  UNL1        0.0015
     14 C         141.3480  142.6811  163.8840 C.ar    1  UNL1        0.0046
     15 C         141.4186  142.1757  162.4736 C.ar    1  UNL1        0.0547
     16 C         141.0080  143.0643  161.3371 C.ar    1  UNL1        0.0247
     17 C         142.0222  140.4685  162.3179 C.2     1  UNL1        0.2462
     18 O         142.2991  140.0086  163.7185 O.2     1  UNL1       -0.2701
     19 N         142.4072  139.2343  161.5575 N.am    1  UNL1       -0.2957
     20 C         142.6497  138.3085  160.4024 C.3     1  UNL1        0.1360
     21 C         142.7203  137.8031  158.9918 C.ar    1  UNL1        0.0788
     22 C         142.6105  137.7789  157.4961 C.ar    1  UNL1        0.0165
     23 C         142.3336  138.2388  156.0954 C.ar    1  UNL1        0.0029
     24 C         142.8614  136.7923  156.1708 C.ar    1  UNL1        0.0207
     25 C         143.2721  135.9036  157.3074 C.ar    1  UNL1        0.0985
     26 N         143.2015  136.4091  158.7179 N.ar    1  UNL1       -0.2464
     27 C         141.9229  139.1275  154.9589 C.ar    1  UNL1        0.0031
     28 C         142.3080  137.8931  154.1984 C.ar    1  UNL1        0.0207
     29 C         142.1981  137.8690  152.7027 C.ar    1  UNL1        0.0988
     30 N         141.7033  139.0790  151.9673 N.ar    1  UNL1       -0.2438
     31 C         141.3182  140.3133  152.7278 C.ar    1  UNL1        0.0813
     32 C         140.7484  141.7478  152.0676 C.ar    1  UNL1        0.0191
     33 C         140.3451  143.0172  152.7576 C.ar    1  UNL1        0.0016
     34 C         140.4274  143.1172  154.2520 C.ar    1  UNL1        0.0016
     35 C         140.9087  141.7232  153.9781 C.ar    1  UNL1        0.0015
     36 C         141.4280  140.3376  154.2235 C.ar    1  UNL1        0.0177
     37 H         139.5232  146.7218  159.2536 H       1  UNL1        0.1739
     38 H         142.6768  138.6511  162.3034 H       1  UNL1        0.1501
     39 C         138.4717  149.4763  156.8636 C.3     1  UNL1        0.2543
     40 O         138.8494  148.2270  157.6030 O.3     1  UNL1       -0.4553
@<TRIPOS>BOND
     1    39    40    1
     2    40     1    1
     3     1     2   ar
     4     2     3   ar
     5     3     4   ar
     6     4     5   ar
     7     5     6   ar
     8     6     7    1
     9     7     8    1
    10     8     9    2
    11     8    10    2
    12     8    11    1
    13    11    12   ar
    14    12    13   ar
    15    13    14   ar
    16    14    15   ar
    17    15    16   ar
    18    15    17    1
    19    17    18    2
    20    17    19   am
    21    19    20    1
    22    20    21    1
    23    21    22   ar
    24    22    23   ar
    25    23    24   ar
    26    24    25   ar
    27    25    26   ar
    28    23    27    1
    29    27    28   ar
    30    28    29   ar
    31    29    30   ar
    32    30    31   ar
    33    31    32   ar
    34    32    33   ar
    35    33    34   ar
    36    34    35   ar
    37    35    36   ar
    38     6     1   ar
    39    16    11   ar
    40    26    21   ar
    41    36    27   ar
    42    34     4    1
    43    36    31   ar
    44     7    37    1
    45    19    38    1
@<TRIPOS>MOLECULE
*****
 40 45 0 0 0
SMALL
GASTEIGER

@<TRIPOS>ATOM
      1 C         142.8252  136.8705  155.5652 C.ar    1  UNL1        0.2400
      2 N         143.1169  135.9563  156.7181 N.ar    1  UNL1       -0.2090
      3 C         142.9793  136.4567  158.1255 C.ar    1  UNL1        0.1021
      4 C         142.5711  137.8145  158.7312 C.ar    1  UNL1        0.0207
      5 C         142.5580  137.8042  157.2312 C.ar    1  UNL1        0.0221
      6 C         142.3959  138.2851  155.8197 C.ar    1  UNL1        0.1178
      7 N         142.1042  139.1992  154.6668 N.pl3   1  UNL1       -0.2104
      8 S         141.7181  140.4364  153.9116 S.O2    1  UNL1        0.0737
      9 O         141.6043  140.7572  152.4508 O.2     1  UNL1       -0.1499
     10 O         142.0618  139.2796  153.0208 O.2     1  UNL1       -0.1499
     11 C         141.2842  141.8474  153.6451 C.ar    1  UNL1        0.1253
     12 C         141.1220  142.3283  152.2336 C.ar    1  UNL1        0.0202
     13 C         140.6882  143.7392  151.9672 C.ar    1  UNL1        0.0015
     14 C         140.4165  144.6692  153.1123 C.ar    1  UNL1        0.0046
     15 C         140.5786  144.1883  154.5238 C.ar    1  UNL1        0.0547
     16 C         141.0125  142.7774  154.7902 C.ar    1  UNL1        0.0247
     17 C         140.2101  145.4394  155.7894 C.2     1  UNL1        0.2462
     18 O         139.8240  146.6766  155.0342 O.2     1  UNL1       -0.2701
     19 N         140.0725  145.9397  157.1968 N.am    1  UNL1       -0.2957
     20 C         140.0856  145.9501  158.6967 C.3     1  UNL1        0.1360
     21 C         140.2477  145.4692  160.1083 C.ar    1  UNL1        0.0788
     22 C         140.5394  144.5550  161.2612 C.ar    1  UNL1        0.0165
     23 C         140.9255  143.3178  162.0164 C.ar    1  UNL1        0.0029
     24 C         140.5721  144.5073  162.9313 C.ar    1  UNL1        0.0207
     25 C         140.1382  145.9183  162.6649 C.ar    1  UNL1        0.0985
     26 N         139.9760  146.3992  161.2534 N.ar    1  UNL1       -0.2464
     27 C         141.3594  141.9069  162.2828 C.ar    1  UNL1        0.0031
     28 C         141.2218  142.4072  163.6902 C.ar    1  UNL1        0.0207
     29 C         141.5135  141.4930  164.8431 C.ar    1  UNL1        0.0988
     30 N         141.9428  140.0785  164.5886 N.ar    1  UNL1       -0.2438
     31 C         142.0805  139.5782  163.1812 C.ar    1  UNL1        0.0813
     32 C         142.5474  138.0333  162.7188 C.ar    1  UNL1        0.0191
     33 C         142.7072  137.4614  161.3413 C.ar    1  UNL1        0.0016
     34 C         142.4335  138.3148  160.1385 C.ar    1  UNL1        0.0016
     35 C         142.1618  139.2449  161.2836 C.ar    1  UNL1        0.0015
     36 C         141.7887  140.4923  162.0283 C.ar    1  UNL1        0.0177
     37 H         142.2825  138.5888  153.9152 H       1  UNL1        0.1739
     38 H         139.7878  146.8658  157.0219 H       1  UNL1        0.1501
     39 C         141.8328  135.6234  153.5134 C.3     1  UNL1        0.2543
     40 O         142.9629  136.3701  154.1579 O.3     1  UNL1       -0.4553
@<TRIPOS>BOND
     1    39    40    1
     2    40     1    1
     3     1     2   ar
     4     2     3   ar
     5     3     4   ar
     6     4     5   ar
     7     5     6   ar
     8     6     7    1
     9     7     8    1
    10     8     9    2
    11     8    10    2
    12     8    11    1
    13    11    12   ar
    14    12    13   ar
    15    13    14   ar
    16    14    15   ar
    17    15    16   ar
    18    15    17    1
    19    17    18    2
    20    17    19   am
    21    19    20    1
    22    20    21    1
    23    21    22   ar
    24    22    23   ar
    25    23    24   ar
    26    24    25   ar
    27    25    26   ar
    28    23    27    1
    29    27    28   ar
    30    28    29   ar
    31    29    30   ar
    32    30    31   ar
    33    31    32   ar
    34    32    33   ar
    35    33    34   ar
    36    34    35   ar
    37    35    36   ar
    38     6     1   ar
    39    16    11   ar
    40    26    21   ar
    41    36    27   ar
    42    34     4    1
    43    36    31   ar
    44     7    37    1
    45    19    38    1
@<TRIPOS>MOLECULE
*****
 40 45 0 0 0
SMALL
GASTEIGER

@<TRIPOS>ATOM
      1 C         139.1104  145.6828  156.1507 C.ar    1  UNL1        0.2400
      2 N         138.4167  145.4801  154.8364 N.ar    1  UNL1       -0.2090
      3 C         138.4257  144.1294  154.1841 C.ar    1  UNL1        0.1021
      4 C         139.0346  142.7683  154.5763 C.ar    1  UNL1        0.0207
      5 C         139.3019  143.8509  155.5796 C.ar    1  UNL1        0.0221
      6 C         139.8133  144.5349  156.8128 C.ar    1  UNL1        0.1178
      7 N         140.5070  144.7376  158.1271 N.pl3   1  UNL1       -0.2104
      8 S         141.2995  144.4347  159.3641 S.O2    1  UNL1        0.0737
      9 O         141.7351  145.2633  160.5362 O.2     1  UNL1       -0.1499
     10 O         140.8489  145.8631  159.2822 O.2     1  UNL1       -0.1499
     11 C         142.0952  143.6627  160.3747 C.ar    1  UNL1        0.1253
     12 C         142.6066  144.3466  161.6078 C.ar    1  UNL1        0.0202
     13 C         143.4022  143.5747  162.6182 C.ar    1  UNL1        0.0015
     14 C         143.6864  142.1188  162.3955 C.ar    1  UNL1        0.0046
     15 C         143.1751  141.4349  161.1623 C.ar    1  UNL1        0.0547
     16 C         142.3795  142.2069  160.1519 C.ar    1  UNL1        0.0247
     17 C         143.6075  139.6735  161.0477 C.2     1  UNL1        0.2462
     18 O         144.4000  139.3705  162.2847 O.2     1  UNL1       -0.2701
     19 N         143.6165  138.3228  160.3953 N.am    1  UNL1       -0.2957
     20 C         143.3492  137.2402  159.3920 C.3     1  UNL1        0.1360
     21 C         142.8378  136.5563  158.1588 C.ar    1  UNL1        0.0788
     22 C         142.1441  136.3535  156.8444 C.ar    1  UNL1        0.0165
     23 C         141.3516  136.6564  155.6074 C.ar    1  UNL1        0.0029
     24 C         141.8151  135.1885  155.6924 C.ar    1  UNL1        0.0207
     25 C         142.6108  134.4165  156.7029 C.ar    1  UNL1        0.0985
     26 N         143.1221  135.1004  157.9361 N.ar    1  UNL1       -0.2464
     27 C         140.5560  137.4284  154.5970 C.ar    1  UNL1        0.0031
     28 C         140.5650  136.0776  153.9446 C.ar    1  UNL1        0.0207
     29 C         139.8712  135.8750  152.6302 C.ar    1  UNL1        0.0988
     30 N         139.1684  137.0229  151.9682 N.ar    1  UNL1       -0.2438
     31 C         139.1594  138.3736  152.6206 C.ar    1  UNL1        0.0813
     32 C         138.4254  139.7596  152.0217 C.ar    1  UNL1        0.0191
     33 C         138.3730  141.1377  152.6118 C.ar    1  UNL1        0.0016
     34 C         139.0437  141.4177  153.9240 C.ar    1  UNL1        0.0016
     35 C         139.3280  139.9618  153.7013 C.ar    1  UNL1        0.0015
     36 C         139.8531  138.5764  153.9350 C.ar    1  UNL1        0.0177
     37 H         140.3205  145.6932  158.2733 H       1  UNL1        0.1739
     38 H         144.1387  137.8161  161.0585 H       1  UNL1        0.1501
     39 C         138.8544  148.2626  155.9795 C.3     1  UNL1        0.2543
     40 O         139.1014  147.0335  156.8031 O.3     1  UNL1       -0.4553
@<TRIPOS>BOND
     1    39    40    1
     2    40     1    1
     3     1     2   ar
     4     2     3   ar
     5     3     4   ar
     6     4     5   ar
     7     5     6   ar
     8     6     7    1
     9     7     8    1
    10     8     9    2
    11     8    10    2
    12     8    11    1
    13    11    12   ar
    14    12    13   ar
    15    13    14   ar
    16    14    15   ar
    17    15    16   ar
    18    15    17    1
    19    17    18    2
    20    17    19   am
    21    19    20    1
    22    20    21    1
    23    21    22   ar
    24    22    23   ar
    25    23    24   ar
    26    24    25   ar
    27    25    26   ar
    28    23    27    1
    29    27    28   ar
    30    28    29   ar
    31    29    30   ar
    32    30    31   ar
    33    31    32   ar
    34    32    33   ar
    35    33    34   ar
    36    34    35   ar
    37    35    36   ar
    38     6     1   ar
    39    16    11   ar
    40    26    21   ar
    41    36    27   ar
    42    34     4    1
    43    36    31   ar
    44     7    37    1
    45    19    38    1
@<TRIPOS>MOLECULE
*****
 40 45 0 0 0
SMALL
GASTEIGER

@<TRIPOS>ATOM
      1 C         139.7519  145.3594  162.2364 C.ar    1  UNL1        0.2400
      2 N         139.4320  146.6183  161.4863 N.ar    1  UNL1       -0.2090
      3 C         139.6222  146.6744  159.9995 C.ar    1  UNL1        0.1021
      4 C         140.1145  145.6519  158.9558 C.ar    1  UNL1        0.0207
      5 C         140.0997  145.1130  160.3557 C.ar    1  UNL1        0.0221
      6 C         140.2620  144.1564  161.4996 C.ar    1  UNL1        0.1178
      7 N         140.5819  142.8974  162.2497 N.pl3   1  UNL1       -0.2104
      8 S         141.0208  141.4879  162.5154 S.O2    1  UNL1        0.0737
      9 O         141.1252  140.6600  163.7618 O.2     1  UNL1       -0.1499
     10 O         140.5985  142.2221  163.7534 O.2     1  UNL1       -0.1499
     11 C         141.5257  140.0978  162.2648 C.ar    1  UNL1        0.1253
     12 C         141.6880  139.1412  163.4087 C.ar    1  UNL1        0.0202
     13 C         142.1930  137.7512  163.1580 C.ar    1  UNL1        0.0015
     14 C         142.5356  137.3178  161.7635 C.ar    1  UNL1        0.0046
     15 C         142.3733  138.2744  160.6196 C.ar    1  UNL1        0.0547
     16 C         141.8684  139.6644  160.8702 C.ar    1  UNL1        0.0247
     17 C         142.8322  137.5908  158.9994 C.2     1  UNL1        0.2462
     18 O         143.2711  136.1813  159.2651 O.2     1  UNL1       -0.2701
     19 N         143.0223  137.6470  157.5126 N.am    1  UNL1       -0.2957
     20 C         143.0372  138.1858  156.1128 C.3     1  UNL1        0.1360
     21 C         142.8749  139.1424  154.9689 C.ar    1  UNL1        0.0788
     22 C         142.5550  140.4014  154.2188 C.ar    1  UNL1        0.0165
     23 C         142.1161  141.8109  153.9531 C.ar    1  UNL1        0.0029
     24 C         142.5502  141.0557  152.6810 C.ar    1  UNL1        0.0207
     25 C         143.0552  139.6656  152.4304 C.ar    1  UNL1        0.0985
     26 N         143.2175  138.7090  153.5743 N.ar    1  UNL1       -0.2464
     27 C         141.6112  143.2009  154.2037 C.ar    1  UNL1        0.0031
     28 C         141.8014  143.2571  152.7168 C.ar    1  UNL1        0.0207
     29 C         141.4815  144.5161  151.9668 C.ar    1  UNL1        0.0988
     30 N         140.9714  145.7190  152.7035 N.ar    1  UNL1       -0.2438
     31 C         140.7812  145.6628  154.1904 C.ar    1  UNL1        0.0813
     32 C         140.2227  146.9091  155.1668 C.ar    1  UNL1        0.0191
     33 C         140.0070  146.9295  156.6511 C.ar    1  UNL1        0.0016
     34 C         140.3047  145.7079  157.4691 C.ar    1  UNL1        0.0016
     35 C         140.6474  145.2745  156.0745 C.ar    1  UNL1        0.0015
     36 C         141.1011  144.4039  154.9405 C.ar    1  UNL1        0.0177
     37 H         140.3570  143.1819  163.1650 H       1  UNL1        0.1739
     38 H         143.3538  136.7347  157.3481 H       1  UNL1        0.1501
     39 C         138.3469  144.6383  164.2994 C.3     1  UNL1        0.2543
     40 O         139.5617  145.3033  163.7232 O.3     1  UNL1       -0.4553
@<TRIPOS>BOND
     1    39    40    1
     2    40     1    1
     3     1     2   ar
     4     2     3   ar
     5     3     4   ar
     6     4     5   ar
     7     5     6   ar
     8     6     7    1
     9     7     8    1
    10     8     9    2
    11     8    10    2
    12     8    11    1
    13    11    12   ar
    14    12    13   ar
    15    13    14   ar
    16    14    15   ar
    17    15    16   ar
    18    15    17    1
    19    17    18    2
    20    17    19   am
    21    19    20    1
    22    20    21    1
    23    21    22   ar
    24    22    23   ar
    25    23    24   ar
    26    24    25   ar
    27    25    26   ar
    28    23    27    1
    29    27    28   ar
    30    28    29   ar
    31    29    30   ar
    32    30    31   ar
    33    31    32   ar
    34    32    33   ar
    35    33    34   ar
    36    34    35   ar
    37    35    36   ar
    38     6     1   ar
    39    16    11   ar
    40    26    21   ar
    41    36    27   ar
    42    34     4    1
    43    36    31   ar
    44     7    37    1
    45    19    38    1
@<TRIPOS>MOLECULE
*****
 40 45 0 0 0
SMALL
GASTEIGER

@<TRIPOS>ATOM
      1 C         142.3574  135.2507  156.3590 C.ar    1  UNL1        0.2400
      2 N         143.1299  134.7595  157.5473 N.ar    1  UNL1       -0.2090
      3 C         143.3540  135.6643  158.7224 C.ar    1  UNL1        0.1021
      4 C         142.9423  137.1172  159.0336 C.ar    1  UNL1        0.0207
      5 C         142.4709  136.6396  157.6920 C.ar    1  UNL1        0.0221
      6 C         141.8090  136.6469  156.3460 C.ar    1  UNL1        0.1178
      7 N         141.0365  137.1381  155.1578 N.pl3   1  UNL1       -0.2104
      8 S         140.2466  138.0542  154.2707 S.O2    1  UNL1        0.0737
      9 O         139.6403  137.8970  152.9077 O.2     1  UNL1       -0.1499
     10 O         140.4784  136.6994  153.6699 O.2     1  UNL1       -0.1499
     11 C         139.5345  139.2845  153.7917 C.ar    1  UNL1        0.1253
     12 C         138.8726  139.2917  152.4457 C.ar    1  UNL1        0.0202
     13 C         138.1605  140.5220  151.9668 C.ar    1  UNL1        0.0015
     14 C         138.1103  141.7449  152.8338 C.ar    1  UNL1        0.0046
     15 C         138.7722  141.7377  154.1799 C.ar    1  UNL1        0.0547
     16 C         139.4843  140.5074  154.6588 C.ar    1  UNL1        0.0247
     17 C         138.6175  143.2971  155.1002 C.2     1  UNL1        0.2462
     18 O         137.8275  144.2131  154.2131 O.2     1  UNL1       -0.2701
     19 N         138.8416  144.2019  156.2754 N.am    1  UNL1       -0.2957
     20 C         139.3130  144.6795  157.6169 C.3     1  UNL1        0.1360
     21 C         139.9750  144.6722  158.9630 C.ar    1  UNL1        0.0788
     22 C         140.7475  144.1809  160.1512 C.ar    1  UNL1        0.0165
     23 C         141.5374  143.2649  161.0383 C.ar    1  UNL1        0.0029
     24 C         141.2988  144.6576  161.6551 C.ar    1  UNL1        0.0207
     25 C         140.5866  145.8879  161.1761 C.ar    1  UNL1        0.0985
     26 N         139.9248  145.8951  159.8300 N.ar    1  UNL1       -0.2464
     27 C         142.2495  142.0346  161.5172 C.ar    1  UNL1        0.0031
     28 C         142.4736  142.9395  162.6924 C.ar    1  UNL1        0.0207
     29 C         143.2461  142.4482  163.8806 C.ar    1  UNL1        0.0988
     30 N         143.7945  141.0521  163.8937 N.ar    1  UNL1       -0.2438
     31 C         143.5703  140.1472  162.7185 C.ar    1  UNL1        0.0813
     32 C         144.1106  138.5649  162.5675 C.ar    1  UNL1        0.0191
     33 C         143.9278  137.6028  161.4313 C.ar    1  UNL1        0.0016
     34 C         143.1665  138.0220  160.2087 C.ar    1  UNL1        0.0016
     35 C         143.1163  139.2450  161.0758 C.ar    1  UNL1        0.0015
     36 C         142.7978  140.6385  161.5302 C.ar    1  UNL1        0.0177
     37 H         141.0695  136.3355  154.5887 H       1  UNL1        0.1739
     38 H         138.3743  145.0093  155.9610 H       1  UNL1        0.1501
     39 C         141.4548  133.0219  155.3753 C.3     1  UNL1        0.2543
     40 O         142.1332  134.3459  155.1839 O.3     1  UNL1       -0.4553
@<TRIPOS>BOND
     1    39    40    1
     2    40     1    1
     3     1     2   ar
     4     2     3   ar
     5     3     4   ar
     6     4     5   ar
     7     5     6   ar
     8     6     7    1
     9     7     8    1
    10     8     9    2
    11     8    10    2
    12     8    11    1
    13    11    12   ar
    14    12    13   ar
    15    13    14   ar
    16    14    15   ar
    17    15    16   ar
    18    15    17    1
    19    17    18    2
    20    17    19   am
    21    19    20    1
    22    20    21    1
    23    21    22   ar
    24    22    23   ar
    25    23    24   ar
    26    24    25   ar
    27    25    26   ar
    28    23    27    1
    29    27    28   ar
    30    28    29   ar
    31    29    30   ar
    32    30    31   ar
    33    31    32   ar
    34    32    33   ar
    35    33    34   ar
    36    34    35   ar
    37    35    36   ar
    38     6     1   ar
    39    16    11   ar
    40    26    21   ar
    41    36    27   ar
    42    34     4    1
    43    36    31   ar
    44     7    37    1
    45    19    38    1
@<TRIPOS>MOLECULE
*****
 40 45 0 0 0
SMALL
GASTEIGER

@<TRIPOS>ATOM
      1 C         142.7775  143.4583  161.9249 C.ar    1  UNL1        0.2400
      2 N         143.4224  142.3478  162.7000 N.ar    1  UNL1       -0.2090
      3 C         143.5004  140.9699  162.1123 C.ar    1  UNL1        0.1021
      4 C         143.0326  140.3612  160.7752 C.ar    1  UNL1        0.0207
      5 C         142.7200  141.8225  160.9053 C.ar    1  UNL1        0.0221
      6 C         142.2106  143.1910  160.5621 C.ar    1  UNL1        0.1178
      7 N         141.5656  144.3015  159.7870 N.pl3   1  UNL1       -0.2104
      8 S         140.8631  145.0202  158.6735 S.O2    1  UNL1        0.0737
      9 O         140.4134  146.4389  158.4862 O.2     1  UNL1       -0.1499
     10 O         141.1824  145.9039  159.8427 O.2     1  UNL1       -0.1499
     11 C         140.1876  145.2604  157.3558 C.ar    1  UNL1        0.1253
     12 C         139.6781  146.6288  157.0127 C.ar    1  UNL1        0.0202
     13 C         139.0027  146.8689  155.6951 C.ar    1  UNL1        0.0015
     14 C         138.8367  145.7406  154.7207 C.ar    1  UNL1        0.0046
     15 C         139.3462  144.3722  155.0639 C.ar    1  UNL1        0.0547
     16 C         140.0216  144.1321  156.3815 C.ar    1  UNL1        0.0247
     17 C         139.0648  143.1221  153.7751 C.2     1  UNL1        0.2462
     18 O         138.3622  143.8408  152.6616 O.2     1  UNL1       -0.2701
     19 N         139.1428  141.7442  153.1875 N.am    1  UNL1       -0.2957
     20 C         139.4554  140.2830  153.0574 C.3     1  UNL1        0.1360
     21 C         139.9649  138.9145  153.4006 C.ar    1  UNL1        0.0788
     22 C         140.6098  137.8040  154.1757 C.ar    1  UNL1        0.0165
     23 C         141.3124  137.0853  155.2892 C.ar    1  UNL1        0.0029
     24 C         140.9839  136.1776  154.0871 C.ar    1  UNL1        0.0207
     25 C         140.3084  136.4178  152.7694 C.ar    1  UNL1        0.0985
     26 N         139.7990  137.7862  152.4262 N.ar    1  UNL1       -0.2464
     27 C         141.9878  136.8452  156.6068 C.ar    1  UNL1        0.0031
     28 C         142.0659  135.4672  156.0191 C.ar    1  UNL1        0.0207
     29 C         142.7108  134.3567  156.7943 C.ar    1  UNL1        0.0988
     30 N         143.2777  134.6240  158.1570 N.ar    1  UNL1       -0.2438
     31 C         143.1996  136.0020  158.7447 C.ar    1  UNL1        0.0813
     32 C         143.7798  136.4736  160.2478 C.ar    1  UNL1        0.0191
     33 C         143.7395  137.8234  160.9010 C.ar    1  UNL1        0.0016
     34 C         143.1106  138.9834  160.1875 C.ar    1  UNL1        0.0016
     35 C         142.9447  137.8551  159.2131 C.ar    1  UNL1        0.0015
     36 C         142.5547  137.1125  157.9696 C.ar    1  UNL1        0.0177
     37 H         141.6746  145.0420  160.4265 H       1  UNL1        0.1739
     38 H         138.6995  141.9019  152.3227 H       1  UNL1        0.1501
     39 C         141.7026  145.1356  163.5927 C.3     1  UNL1        0.2543
     40 O         142.6994  144.8361  162.5126 O.3     1  UNL1       -0.4553
@<TRIPOS>BOND
     1    39    40    1
     2    40     1    1
     3     1     2   ar
     4     2     3   ar
     5     3     4   ar
     6     4     5   ar
     7     5     6   ar
     8     6     7    1
     9     7     8    1
    10     8     9    2
    11     8    10    2
    12     8    11    1
    13    11    12   ar
    14    12    13   ar
    15    13    14   ar
    16    14    15   ar
    17    15    16   ar
    18    15    17    1
    19    17    18    2
    20    17    19   am
    21    19    20    1
    22    20    21    1
    23    21    22   ar
    24    22    23   ar
    25    23    24   ar
    26    24    25   ar
    27    25    26   ar
    28    23    27    1
    29    27    28   ar
    30    28    29   ar
    31    29    30   ar
    32    30    31   ar
    33    31    32   ar
    34    32    33   ar
    35    33    34   ar
    36    34    35   ar
    37    35    36   ar
    38     6     1   ar
    39    16    11   ar
    40    26    21   ar
    41    36    27   ar
    42    34     4    1
    43    36    31   ar
    44     7    37    1
    45    19    38    1
@<TRIPOS>MOLECULE
*****
 40 45 0 0 0
SMALL
GASTEIGER

@<TRIPOS>ATOM
      1 C         143.5000  140.1042  162.1128 C.ar    1  UNL1        0.2400
      2 N         143.3731  141.4830  162.6897 N.ar    1  UNL1       -0.2090
      3 C         142.7064  142.5688  161.8982 C.ar    1  UNL1        0.1021
      4 C         142.0577  142.6139  160.5002 C.ar    1  UNL1        0.0207
      5 C         142.6027  141.2634  160.8599 C.ar    1  UNL1        0.0221
      6 C         142.9602  139.8113  160.7443 C.ar    1  UNL1        0.1178
      7 N         143.0871  138.4325  160.1673 N.pl3   1  UNL1       -0.2104
      8 S         142.9681  137.2935  159.1986 S.O2    1  UNL1        0.0737
      9 O         143.3941  135.8559  159.2427 O.2     1  UNL1       -0.1499
     10 O         143.6561  136.9166  160.4772 O.2     1  UNL1       -0.1499
     11 C         142.6175  136.5315  157.9550 C.ar    1  UNL1        0.1253
     12 C         142.9750  135.0793  157.8394 C.ar    1  UNL1        0.0202
     13 C         142.6245  134.3174  156.5958 C.ar    1  UNL1        0.0015
     14 C         141.9165  135.0076  155.4678 C.ar    1  UNL1        0.0046
     15 C         141.5590  136.4597  155.5834 C.ar    1  UNL1        0.0547
     16 C         141.9095  137.2217  156.8270 C.ar    1  UNL1        0.0247
     17 C         140.7058  137.1401  154.1302 C.2     1  UNL1        0.2462
     18 O         140.5867  136.0011  153.1615 O.2     1  UNL1       -0.2701
     19 N         140.0391  138.2260  153.3387 N.am    1  UNL1       -0.2957
     20 C         139.4941  139.5763  152.9790 C.3     1  UNL1        0.1360
     21 C         139.1366  141.0286  153.0947 C.ar    1  UNL1        0.0788
     22 C         139.0097  142.4074  153.6716 C.ar    1  UNL1        0.0165
     23 C         139.1287  143.5464  154.6404 C.ar    1  UNL1        0.0029
     24 C         138.4216  143.9330  153.3260 C.ar    1  UNL1        0.0207
     25 C         138.0711  143.1710  152.0824 C.ar    1  UNL1        0.0985
     26 N         138.4286  141.7188  151.9668 N.ar    1  UNL1       -0.2464
     27 C         139.4793  144.3083  155.8839 C.ar    1  UNL1        0.0031
     28 C         138.8125  145.3942  155.0924 C.ar    1  UNL1        0.0207
     29 C         138.6857  146.7729  155.6694 C.ar    1  UNL1        0.0988
     30 N         139.2254  147.0659  157.0379 N.ar    1  UNL1       -0.2438
     31 C         139.8922  145.9800  157.8294 C.ar    1  UNL1        0.0813
     32 C         140.5483  146.1334  159.3670 C.ar    1  UNL1        0.0191
     33 C         141.2269  145.1011  160.2178 C.ar    1  UNL1        0.0016
     34 C         141.3911  143.6997  159.7087 C.ar    1  UNL1        0.0016
     35 C         140.6830  144.3899  158.5808 C.ar    1  UNL1        0.0015
     36 C         140.0191  144.6013  157.2525 C.ar    1  UNL1        0.0177
     37 H         143.5518  137.9795  160.9076 H       1  UNL1        0.1739
     38 H         139.8090  137.7259  152.5225 H       1  UNL1        0.1501
     39 C         144.8606  139.3476  164.1927 C.3     1  UNL1        0.2543
     40 O         144.1667  139.0185  162.9043 O.3     1  UNL1       -0.4553
@<TRIPOS>BOND
     1    39    40    1
     2    40     1    1
     3     1     2   ar
     4     2     3   ar
     5     3     4   ar
     6     4     5   ar
     7     5     6   ar
     8     6     7    1
     9     7     8    1
    10     8     9    2
    11     8    10    2
    12     8    11    1
    13    11    12   ar
    14    12    13   ar
    15    13    14   ar
    16    14    15   ar
    17    15    16   ar
    18    15    17    1
    19    17    18    2
    20    17    19   am
    21    19    20    1
    22    20    21    1
    23    21    22   ar
    24    22    23   ar
    25    23    24   ar
    26    24    25   ar
    27    25    26   ar
    28    23    27    1
    29    27    28   ar
    30    28    29   ar
    31    29    30   ar
    32    30    31   ar
    33    31    32   ar
    34    32    33   ar
    35    33    34   ar
    36    34    35   ar
    37    35    36   ar
    38     6     1   ar
    39    16    11   ar
    40    26    21   ar
    41    36    27   ar
    42    34     4    1
    43    36    31   ar
    44     7    37    1
    45    19    38    1
