@<TRIPOS>MOLECULE
*****
 26 28 0 0 0
SMALL
GASTEIGER

@<TRIPOS>ATOM
      1 C         140.2129  145.0373  162.8984 C.ar    1  UNL1       -0.0208
      2 C         141.4765  144.5129  163.5135 C.ar    1  UNL1       -0.0042
      3 C         141.4134  143.6663  164.7501 C.ar    1  UNL1       -0.0003
      4 C         140.0867  143.3441  165.3715 C.ar    1  UNL1       -0.0000
      5 C         138.8232  143.8685  164.7564 C.ar    1  UNL1       -0.0003
      6 C         138.8863  144.7151  163.5198 C.ar    1  UNL1       -0.0042
      7 C         140.0236  142.4974  166.6082 C.ar    1  UNL1        0.0001
      8 C         140.3467  143.0967  167.9447 C.ar    1  UNL1        0.0014
      9 C         140.2836  142.2500  169.1814 C.ar    1  UNL1        0.0199
     10 C         139.8975  140.8040  169.0814 C.ar    1  UNL1        0.1217
     11 C         139.5744  140.2047  167.7448 C.ar    1  UNL1        0.0199
     12 C         139.6375  141.0514  166.5082 C.ar    1  UNL1        0.0014
     13 S         139.8344  139.9574  170.3180 S.O2    1  UNL1        0.0572
     14 N         139.7713  139.1107  171.5545 N.3     1  UNL1       -0.2035
     15 O         138.3386  140.0690  170.3181 O.2     1  UNL1       -0.1532
     16 O         141.3302  139.8457  170.3178 O.2     1  UNL1       -0.1532
     17 H         138.7980  138.9904  171.8349 H       1  UNL1        0.1442
     18 H         140.2877  139.5677  172.3062 H       1  UNL1        0.1442
     19 C         140.2760  145.8840  161.6617 C.3     1  UNL1        0.0437
     20 C         140.3278  145.2351  160.3103 C.3     1  UNL1        0.0768
     21 C         142.8907  143.2153  160.2731 C.3     1  UNL1        0.0173
     22 C         141.4491  142.8123  160.1761 C.3     1  UNL1        0.0576
     23 C         140.9324  141.4102  160.0450 C.3     1  UNL1        0.0174
     24 C         139.4350  141.4721  159.9810 C.3     1  UNL1        0.0187
     25 C         139.0263  142.9125  160.0726 C.3     1  UNL1        0.0721
     26 N         140.2711  143.7407  160.1932 N.3     1  UNL1       -0.2737
@<TRIPOS>BOND
     1    22    21    1
     2    22    23    1
     3    23    24    1
     4    24    25    1
     5    25    26    1
     6    26    20    1
     7    20    19    1
     8    19     1    1
     9     1     2   ar
    10     2     3   ar
    11     3     4   ar
    12     4     7    1
    13     7     8   ar
    14     8     9   ar
    15     9    10   ar
    16    10    13    1
    17    13    14    1
    18    13    15    2
    19    13    16    2
    20    10    11   ar
    21    11    12   ar
    22     4     5   ar
    23     5     6   ar
    24    26    22    1
    25     6     1   ar
    26    12     7   ar
    27    14    17    1
    28    14    18    1
@<TRIPOS>MOLECULE
*****
 26 28 0 0 0
SMALL
GASTEIGER

@<TRIPOS>ATOM
      1 C         140.1708  143.9141  162.3303 C.ar    1  UNL1       -0.0208
      2 C         140.0841  144.7370  163.5813 C.ar    1  UNL1       -0.0042
      3 C         140.0100  144.0626  164.9191 C.ar    1  UNL1       -0.0003
      4 C         140.0225  142.5651  165.0058 C.ar    1  UNL1       -0.0000
      5 C         140.1091  141.7421  163.7547 C.ar    1  UNL1       -0.0003
      6 C         140.1833  142.4166  162.4170 C.ar    1  UNL1       -0.0042
      7 C         139.9483  141.8907  166.3436 C.ar    1  UNL1        0.0001
      8 C         140.4547  142.5946  167.5675 C.ar    1  UNL1        0.0014
      9 C         140.3805  141.9202  168.9053 C.ar    1  UNL1        0.0199
     10 C         139.8000  140.5417  169.0191 C.ar    1  UNL1        0.1217
     11 C         139.2937  139.8378  167.7951 C.ar    1  UNL1        0.0199
     12 C         139.3678  140.5122  166.4574 C.ar    1  UNL1        0.0014
     13 S         139.7259  139.8673  170.3568 S.O2    1  UNL1        0.0572
     14 N         139.6517  139.1928  171.6946 N.3     1  UNL1       -0.2035
     15 O         141.2187  139.7213  170.3660 O.2     1  UNL1       -0.1532
     16 O         138.2331  140.0133  170.3477 O.2     1  UNL1       -0.1532
     17 H         140.5920  138.9463  172.0036 H       1  UNL1        0.1442
     18 H         139.0864  138.3473  171.6181 H       1  UNL1        0.1442
     19 C         140.2449  144.5885  160.9925 C.3     1  UNL1        0.0437
     20 C         141.5792  144.8796  160.3723 C.3     1  UNL1        0.0768
     21 C         143.6701  144.6582  162.8680 C.3     1  UNL1        0.0173
     22 C         143.6590  143.7868  161.6471 C.3     1  UNL1        0.0576
     23 C         144.6070  142.6606  161.3591 C.3     1  UNL1        0.0174
     24 C         144.2319  142.0663  160.0338 C.3     1  UNL1        0.0187
     25 C         143.0519  142.8253  159.5029 C.3     1  UNL1        0.0721
     26 N         142.6980  143.8886  160.5000 N.3     1  UNL1       -0.2737
@<TRIPOS>BOND
     1    22    21    1
     2    22    23    1
     3    23    24    1
     4    24    25    1
     5    25    26    1
     6    26    20    1
     7    20    19    1
     8    19     1    1
     9     1     2   ar
    10     2     3   ar
    11     3     4   ar
    12     4     7    1
    13     7     8   ar
    14     8     9   ar
    15     9    10   ar
    16    10    13    1
    17    13    14    1
    18    13    15    2
    19    13    16    2
    20    10    11   ar
    21    11    12   ar
    22     4     5   ar
    23     5     6   ar
    24    26    22    1
    25     6     1   ar
    26    12     7   ar
    27    14    17    1
    28    14    18    1
@<TRIPOS>MOLECULE
*****
 26 28 0 0 0
SMALL
GASTEIGER

@<TRIPOS>ATOM
      1 C         137.9236  139.8377  162.4931 C.ar    1  UNL1       -0.0208
      2 C         137.6470  141.1798  163.1031 C.ar    1  UNL1       -0.0042
      3 C         138.1980  141.5161  164.4570 C.ar    1  UNL1       -0.0003
      4 C         139.0257  140.5104  165.2009 C.ar    1  UNL1       -0.0000
      5 C         139.3023  139.1682  164.5909 C.ar    1  UNL1       -0.0003
      6 C         138.7512  138.8319  163.2370 C.ar    1  UNL1       -0.0042
      7 C         139.5768  140.8468  166.5549 C.ar    1  UNL1        0.0001
      8 C         140.2753  142.1556  166.7763 C.ar    1  UNL1        0.0014
      9 C         140.8264  142.4920  168.1303 C.ar    1  UNL1        0.0199
     10 C         140.6788  141.5195  169.2628 C.ar    1  UNL1        0.1217
     11 C         139.9802  140.2107  169.0414 C.ar    1  UNL1        0.0199
     12 C         139.4292  139.8743  167.6874 C.ar    1  UNL1        0.0014
     13 S         141.2299  141.8559  170.6168 S.O2    1  UNL1        0.0572
     14 N         141.7809  142.1922  171.9707 N.3     1  UNL1       -0.2035
     15 O         140.3106  140.8484  171.2412 O.2     1  UNL1       -0.1532
     16 O         142.1491  142.8633  169.9924 O.2     1  UNL1       -0.1532
     17 H         141.3164  141.6226  172.6779 H       1  UNL1        0.1442
     18 H         141.6178  143.1795  172.1685 H       1  UNL1        0.1442
     19 C         137.3725  139.5012  161.1391 C.3     1  UNL1        0.0437
     20 C         138.1370  139.8756  159.9040 C.3     1  UNL1        0.0768
     21 C         141.2706  140.0535  160.7973 C.3     1  UNL1        0.0173
     22 C         140.4282  141.1927  160.3048 C.3     1  UNL1        0.0576
     23 C         140.8783  142.6136  160.1364 C.3     1  UNL1        0.0174
     24 C         139.7160  143.4101  159.6218 C.3     1  UNL1        0.0187
     25 C         138.5476  142.4813  159.4720 C.3     1  UNL1        0.0721
     26 N         138.9879  141.1109  159.8942 N.3     1  UNL1       -0.2737
@<TRIPOS>BOND
     1    22    21    1
     2    22    23    1
     3    23    24    1
     4    24    25    1
     5    25    26    1
     6    26    20    1
     7    20    19    1
     8    19     1    1
     9     1     2   ar
    10     2     3   ar
    11     3     4   ar
    12     4     7    1
    13     7     8   ar
    14     8     9   ar
    15     9    10   ar
    16    10    13    1
    17    13    14    1
    18    13    15    2
    19    13    16    2
    20    10    11   ar
    21    11    12   ar
    22     4     5   ar
    23     5     6   ar
    24    26    22    1
    25     6     1   ar
    26    12     7   ar
    27    14    17    1
    28    14    18    1
@<TRIPOS>MOLECULE
*****
 26 28 0 0 0
SMALL
GASTEIGER

@<TRIPOS>ATOM
      1 C         137.9016  139.8286  162.4765 C.ar    1  UNL1       -0.0208
      2 C         137.5505  141.1348  163.1248 C.ar    1  UNL1       -0.0042
      3 C         138.1035  141.4734  164.4774 C.ar    1  UNL1       -0.0003
      4 C         139.0077  140.5057  165.1817 C.ar    1  UNL1       -0.0000
      5 C         139.3588  139.1995  164.5334 C.ar    1  UNL1       -0.0003
      6 C         138.8058  138.8609  163.1808 C.ar    1  UNL1       -0.0042
      7 C         139.5607  140.8444  166.5343 C.ar    1  UNL1        0.0001
      8 C         139.4001  139.8811  167.6728 C.ar    1  UNL1        0.0014
      9 C         139.9532  140.2197  169.0255 C.ar    1  UNL1        0.0199
     10 C         140.6668  141.5216  169.2395 C.ar    1  UNL1        0.1217
     11 C         140.8273  142.4849  168.1009 C.ar    1  UNL1        0.0199
     12 C         140.2743  142.1463  166.7483 C.ar    1  UNL1        0.0014
     13 S         141.2198  141.8603  170.5920 S.O2    1  UNL1        0.0572
     14 N         141.7728  142.1990  171.9446 N.3     1  UNL1       -0.2035
     15 O         142.0872  142.9160  169.9731 O.2     1  UNL1       -0.1532
     16 O         140.3524  140.8047  171.2110 O.2     1  UNL1       -0.1532
     17 H         142.4543  142.9525  171.8543 H       1  UNL1        0.1442
     18 H         142.2262  141.3763  172.3422 H       1  UNL1        0.1442
     19 C         137.3486  139.4899  161.1239 C.3     1  UNL1        0.0437
     20 C         138.0051  140.0307  159.8884 C.3     1  UNL1        0.0768
     21 C         140.7032  141.5531  160.9141 C.3     1  UNL1        0.0173
     22 C         140.6561  140.3428  160.0292 C.3     1  UNL1        0.0576
     23 C         141.8409  139.6198  159.4605 C.3     1  UNL1        0.0174
     24 C         141.3330  138.4731  158.6375 C.3     1  UNL1        0.0187
     25 C         139.8342  138.4875  158.6976 C.3     1  UNL1        0.0721
     26 N         139.4160  139.6430  159.5578 N.3     1  UNL1       -0.2737
@<TRIPOS>BOND
     1    22    21    1
     2    22    23    1
     3    23    24    1
     4    24    25    1
     5    25    26    1
     6    26    20    1
     7    20    19    1
     8    19     1    1
     9     1     2   ar
    10     2     3   ar
    11     3     4   ar
    12     4     7    1
    13     7     8   ar
    14     8     9   ar
    15     9    10   ar
    16    10    13    1
    17    13    14    1
    18    13    15    2
    19    13    16    2
    20    10    11   ar
    21    11    12   ar
    22     4     5   ar
    23     5     6   ar
    24    26    22    1
    25     6     1   ar
    26    12     7   ar
    27    14    17    1
    28    14    18    1
@<TRIPOS>MOLECULE
*****
 26 28 0 0 0
SMALL
GASTEIGER

@<TRIPOS>ATOM
      1 C         142.7961  138.0273  161.9413 C.ar    1  UNL1       -0.0208
      2 C         143.7825  138.8257  162.7410 C.ar    1  UNL1       -0.0042
      3 C         143.4697  139.2002  164.1594 C.ar    1  UNL1       -0.0003
      4 C         142.1707  138.7764  164.7780 C.ar    1  UNL1       -0.0000
      5 C         141.1843  137.9780  163.9783 C.ar    1  UNL1       -0.0003
      6 C         141.4970  137.6034  162.5599 C.ar    1  UNL1       -0.0042
      7 C         141.8580  139.1509  166.1965 C.ar    1  UNL1        0.0001
      8 C         140.4853  139.6349  166.5592 C.ar    1  UNL1        0.0014
      9 C         140.1726  140.0095  167.9777 C.ar    1  UNL1        0.0199
     10 C         141.2326  139.9001  169.0334 C.ar    1  UNL1        0.1217
     11 C         142.6053  139.4161  168.6706 C.ar    1  UNL1        0.0199
     12 C         142.9179  139.0415  167.2522 C.ar    1  UNL1        0.0014
     13 S         140.9200  140.2747  170.4518 S.O2    1  UNL1        0.0572
     14 N         140.6073  140.6492  171.8702 N.3     1  UNL1       -0.2035
     15 O         142.3656  140.6003  170.6844 O.2     1  UNL1       -0.1532
     16 O         139.4744  139.9490  170.2191 O.2     1  UNL1       -0.1532
     17 H         141.4633  140.9429  172.3408 H       1  UNL1        0.1442
     18 H         140.2118  139.8438  172.3552 H       1  UNL1        0.1442
     19 C         143.1088  137.6527  160.5228 C.3     1  UNL1        0.0437
     20 C         142.7020  138.5605  159.4002 C.3     1  UNL1        0.0768
     21 C         139.4926  139.0926  159.1438 C.3     1  UNL1        0.0173
     22 C         140.3328  138.2946  158.1914 C.3     1  UNL1        0.0576
     23 C         139.8453  137.6011  156.9538 C.3     1  UNL1        0.0174
     24 C         141.0194  136.9279  156.3068 C.3     1  UNL1        0.0187
     25 C         142.2324  137.2054  157.1445 C.3     1  UNL1        0.0721
     26 N         141.8080  138.0501  158.3092 N.3     1  UNL1       -0.2737
@<TRIPOS>BOND
     1    22    21    1
     2    22    23    1
     3    23    24    1
     4    24    25    1
     5    25    26    1
     6    26    20    1
     7    20    19    1
     8    19     1    1
     9     1     2   ar
    10     2     3   ar
    11     3     4   ar
    12     4     7    1
    13     7     8   ar
    14     8     9   ar
    15     9    10   ar
    16    10    13    1
    17    13    14    1
    18    13    15    2
    19    13    16    2
    20    10    11   ar
    21    11    12   ar
    22     4     5   ar
    23     5     6   ar
    24    26    22    1
    25     6     1   ar
    26    12     7   ar
    27    14    17    1
    28    14    18    1
@<TRIPOS>MOLECULE
*****
 26 28 0 0 0
SMALL
GASTEIGER

@<TRIPOS>ATOM
      1 C         142.9418  138.0612  162.0783 C.ar    1  UNL1       -0.0208
      2 C         143.8872  138.9014  162.8847 C.ar    1  UNL1       -0.0042
      3 C         143.5385  139.2803  164.2936 C.ar    1  UNL1       -0.0003
      4 C         142.2445  138.8191  164.8959 C.ar    1  UNL1       -0.0000
      5 C         141.2992  137.9789  164.0895 C.ar    1  UNL1       -0.0003
      6 C         141.6478  137.6000  162.6807 C.ar    1  UNL1       -0.0042
      7 C         141.8959  139.1980  166.3048 C.ar    1  UNL1        0.0001
      8 C         140.5194  139.6987  166.6281 C.ar    1  UNL1        0.0014
      9 C         140.1708  140.0777  168.0370 C.ar    1  UNL1        0.0199
     10 C         141.1987  139.9560  169.1226 C.ar    1  UNL1        0.1217
     11 C         142.5753  139.4553  168.7993 C.ar    1  UNL1        0.0199
     12 C         142.9239  139.0764  167.3904 C.ar    1  UNL1        0.0014
     13 S         140.8502  140.3349  170.5314 S.O2    1  UNL1        0.0572
     14 N         140.5016  140.7139  171.9402 N.3     1  UNL1       -0.2035
     15 O         139.4602  139.8088  170.3290 O.2     1  UNL1       -0.1532
     16 O         142.2402  140.8610  170.7338 O.2     1  UNL1       -0.1532
     17 H         139.5314  140.4625  172.1298 H       1  UNL1        0.1442
     18 H         140.6222  141.7194  172.0616 H       1  UNL1        0.1442
     19 C         143.2905  137.6822  160.6694 C.3     1  UNL1        0.0437
     20 C         142.5130  138.2587  159.5235 C.3     1  UNL1        0.0768
     21 C         139.3199  138.8073  159.9132 C.3     1  UNL1        0.0173
     22 C         140.3917  139.8540  159.8399 C.3     1  UNL1        0.0576
     23 C         140.1840  141.3366  159.9329 C.3     1  UNL1        0.0174
     24 C         141.5235  142.0009  159.8113 C.3     1  UNL1        0.0187
     25 C         142.5590  140.9286  159.6431 C.3     1  UNL1        0.0721
     26 N         141.8594  139.6019  159.6608 N.3     1  UNL1       -0.2737
@<TRIPOS>BOND
     1    22    21    1
     2    22    23    1
     3    23    24    1
     4    24    25    1
     5    25    26    1
     6    26    20    1
     7    20    19    1
     8    19     1    1
     9     1     2   ar
    10     2     3   ar
    11     3     4   ar
    12     4     7    1
    13     7     8   ar
    14     8     9   ar
    15     9    10   ar
    16    10    13    1
    17    13    14    1
    18    13    15    2
    19    13    16    2
    20    10    11   ar
    21    11    12   ar
    22     4     5   ar
    23     5     6   ar
    24    26    22    1
    25     6     1   ar
    26    12     7   ar
    27    14    17    1
    28    14    18    1
@<TRIPOS>MOLECULE
*****
 26 28 0 0 0
SMALL
GASTEIGER

@<TRIPOS>ATOM
      1 C         143.4095  138.4917  162.8091 C.ar    1  UNL1       -0.0208
      2 C         142.1095  138.0508  163.4137 C.ar    1  UNL1       -0.0042
      3 C         141.6892  138.5766  164.7542 C.ar    1  UNL1       -0.0003
      4 C         142.5690  139.5433  165.4900 C.ar    1  UNL1       -0.0000
      5 C         143.8690  139.9842  164.8855 C.ar    1  UNL1       -0.0003
      6 C         144.2892  139.4584  163.5450 C.ar    1  UNL1       -0.0042
      7 C         142.1487  140.0691  166.8306 C.ar    1  UNL1        0.0001
      8 C         142.6573  139.4205  168.0837 C.ar    1  UNL1        0.0014
      9 C         142.2370  139.9463  169.4243 C.ar    1  UNL1        0.0199
     10 C         141.3080  141.1208  169.5115 C.ar    1  UNL1        0.1217
     11 C         140.7994  141.7694  168.2583 C.ar    1  UNL1        0.0199
     12 C         141.2197  141.2436  166.9178 C.ar    1  UNL1        0.0014
     13 S         140.8877  141.6466  170.8519 S.O2    1  UNL1        0.0572
     14 N         140.4674  142.1724  172.1924 N.3     1  UNL1       -0.2035
     15 O         140.0177  140.4412  171.0520 O.2     1  UNL1       -0.1532
     16 O         141.7578  142.8520  170.6519 O.2     1  UNL1       -0.1532
     17 H         139.8143  141.5188  172.6245 H       1  UNL1        0.1442
     18 H         140.0140  143.0786  172.0752 H       1  UNL1        0.1442
     19 C         143.8298  137.9658  161.4686 C.3     1  UNL1        0.0437
     20 C         143.5193  138.7463  160.2259 C.3     1  UNL1        0.0768
     21 C         140.4474  139.7989  160.5498 C.3     1  UNL1        0.0173
     22 C         141.6721  140.6620  160.4775 C.3     1  UNL1        0.0576
     23 C         141.6998  142.1603  160.5413 C.3     1  UNL1        0.0174
     24 C         143.1290  142.6026  160.4319 C.3     1  UNL1        0.0187
     25 C         143.9846  141.3775  160.3004 C.3     1  UNL1        0.0721
     26 N         143.0841  140.1782  160.3286 N.3     1  UNL1       -0.2737
@<TRIPOS>BOND
     1    22    21    1
     2    22    23    1
     3    23    24    1
     4    24    25    1
     5    25    26    1
     6    26    20    1
     7    20    19    1
     8    19     1    1
     9     1     2   ar
    10     2     3   ar
    11     3     4   ar
    12     4     7    1
    13     7     8   ar
    14     8     9   ar
    15     9    10   ar
    16    10    13    1
    17    13    14    1
    18    13    15    2
    19    13    16    2
    20    10    11   ar
    21    11    12   ar
    22     4     5   ar
    23     5     6   ar
    24    26    22    1
    25     6     1   ar
    26    12     7   ar
    27    14    17    1
    28    14    18    1
@<TRIPOS>MOLECULE
*****
 26 28 0 0 0
SMALL
GASTEIGER

@<TRIPOS>ATOM
      1 C         139.4888  138.8986  162.1765 C.ar    1  UNL1       -0.0208
      2 C         138.4890  138.7164  163.2797 C.ar    1  UNL1       -0.0042
      3 C         138.8873  138.9735  164.7027 C.ar    1  UNL1       -0.0003
      4 C         140.2854  139.4129  165.0226 C.ar    1  UNL1       -0.0000
      5 C         141.2852  139.5951  163.9194 C.ar    1  UNL1       -0.0003
      6 C         140.8869  139.3379  162.4963 C.ar    1  UNL1       -0.0042
      7 C         140.6836  139.6700  166.4458 C.ar    1  UNL1        0.0001
      8 C         142.1158  139.5143  166.8637 C.ar    1  UNL1        0.0014
      9 C         142.5140  139.7715  168.2869 C.ar    1  UNL1        0.0199
     10 C         141.4800  140.1843  169.2921 C.ar    1  UNL1        0.1217
     11 C         140.0478  140.3399  168.8742 C.ar    1  UNL1        0.0199
     12 C         139.6496  140.0828  167.4510 C.ar    1  UNL1        0.0014
     13 S         141.8782  140.4414  170.7152 S.O2    1  UNL1        0.0572
     14 N         142.2763  140.6985  172.1383 N.3     1  UNL1       -0.2035
     15 O         143.3183  140.2367  170.3493 O.2     1  UNL1       -0.1532
     16 O         140.4380  140.6461  171.0812 O.2     1  UNL1       -0.1532
     17 H         143.2899  140.6256  172.2263 H       1  UNL1        0.1442
     18 H         141.8319  140.0098  172.7455 H       1  UNL1        0.1442
     19 C         139.0906  138.6415  160.7533 C.3     1  UNL1        0.0437
     20 C         138.1063  139.5472  160.0745 C.3     1  UNL1        0.0768
     21 C         138.2938  142.4831  161.4868 C.3     1  UNL1        0.0173
     22 C         138.6645  142.1614  160.0694 C.3     1  UNL1        0.0576
     23 C         139.1863  143.1325  159.0523 C.3     1  UNL1        0.0174
     24 C         139.4227  142.3832  157.7745 C.3     1  UNL1        0.0187
     25 C         139.0468  140.9489  158.0019 C.3     1  UNL1        0.0721
     26 N         138.5783  140.8119  159.4203 N.3     1  UNL1       -0.2737
@<TRIPOS>BOND
     1    22    21    1
     2    22    23    1
     3    23    24    1
     4    24    25    1
     5    25    26    1
     6    26    20    1
     7    20    19    1
     8    19     1    1
     9     1     2   ar
    10     2     3   ar
    11     3     4   ar
    12     4     7    1
    13     7     8   ar
    14     8     9   ar
    15     9    10   ar
    16    10    13    1
    17    13    14    1
    18    13    15    2
    19    13    16    2
    20    10    11   ar
    21    11    12   ar
    22     4     5   ar
    23     5     6   ar
    24    26    22    1
    25     6     1   ar
    26    12     7   ar
    27    14    17    1
    28    14    18    1
@<TRIPOS>MOLECULE
*****
 26 28 0 0 0
SMALL
GASTEIGER

@<TRIPOS>ATOM
      1 C         139.3989  138.5681  162.0928 C.ar    1  UNL1       -0.0208
      2 C         138.8027  137.8233  163.2502 C.ar    1  UNL1       -0.0042
      3 C         138.9671  138.3494  164.6453 C.ar    1  UNL1       -0.0003
      4 C         139.7277  139.6203  164.8828 C.ar    1  UNL1       -0.0000
      5 C         140.3239  140.3651  163.7253 C.ar    1  UNL1       -0.0003
      6 C         140.1595  139.8390  162.3303 C.ar    1  UNL1       -0.0042
      7 C         139.8920  140.1464  166.2779 C.ar    1  UNL1        0.0001
      8 C         139.1028  139.5464  167.4036 C.ar    1  UNL1        0.0014
      9 C         139.2671  140.0725  168.7987 C.ar    1  UNL1        0.0199
     10 C         140.2207  141.1986  169.0681 C.ar    1  UNL1        0.1217
     11 C         141.0100  141.7986  167.9424 C.ar    1  UNL1        0.0199
     12 C         140.8457  141.2725  166.5473 C.ar    1  UNL1        0.0014
     13 S         140.3851  141.7247  170.4631 S.O2    1  UNL1        0.0572
     14 N         140.5495  142.2508  171.8582 N.3     1  UNL1       -0.2035
     15 O         138.8963  141.7087  170.6446 O.2     1  UNL1       -0.1532
     16 O         141.8740  141.7406  170.2817 O.2     1  UNL1       -0.1532
     17 H         139.6322  142.3598  172.2907 H       1  UNL1        0.1442
     18 H         141.0205  143.1550  171.8272 H       1  UNL1        0.1442
     19 C         139.2346  138.0420  160.6976 C.3     1  UNL1        0.0437
     20 C         139.6203  138.8936  159.5247 C.3     1  UNL1        0.0768
     21 C         142.8082  138.3808  159.9976 C.3     1  UNL1        0.0173
     22 C         142.0555  138.1366  158.7234 C.3     1  UNL1        0.0576
     23 C         142.6359  137.6138  157.4429 C.3     1  UNL1        0.0174
     24 C         141.5293  137.5263  156.4340 C.3     1  UNL1        0.0187
     25 C         140.2649  137.9952  157.0911 C.3     1  UNL1        0.0721
     26 N         140.5902  138.3723  158.5060 N.3     1  UNL1       -0.2737
@<TRIPOS>BOND
     1    22    21    1
     2    22    23    1
     3    23    24    1
     4    24    25    1
     5    25    26    1
     6    26    20    1
     7    20    19    1
     8    19     1    1
     9     1     2   ar
    10     2     3   ar
    11     3     4   ar
    12     4     7    1
    13     7     8   ar
    14     8     9   ar
    15     9    10   ar
    16    10    13    1
    17    13    14    1
    18    13    15    2
    19    13    16    2
    20    10    11   ar
    21    11    12   ar
    22     4     5   ar
    23     5     6   ar
    24    26    22    1
    25     6     1   ar
    26    12     7   ar
    27    14    17    1
    28    14    18    1
