@<TRIPOS>MOLECULE
*****
 42 46 0 0 0
SMALL
GASTEIGER

@<TRIPOS>ATOM
      1 C         141.6332  141.9163  163.1521 C.3     1  UNL1        0.0793
      2 C         143.2242  142.7957  165.0083 C.ar    1  UNL1        0.1351
      3 C         143.6018  142.8932  166.4567 C.ar    1  UNL1        0.0366
      4 C         142.7660  142.2088  167.4974 C.ar    1  UNL1        0.0030
      5 C         143.1435  142.3063  168.9458 C.ar    1  UNL1        0.0006
      6 C         142.3077  141.6218  169.9864 C.ar    1  UNL1        0.0067
      7 C         141.0944  140.8399  169.5787 C.ar    1  UNL1        0.0346
      8 BR        140.2586  140.1554  170.6194 Br      1  UNL1       -0.0490
      9 C         140.7168  140.7424  168.1302 C.ar    1  UNL1        0.0067
     10 C         141.5526  141.4268  167.0896 C.ar    1  UNL1        0.0004
     11 C         141.1750  141.3293  165.6412 C.ar    1  UNL1       -0.0009
     12 C         142.0108  142.0138  164.6005 C.ar    1  UNL1        0.0182
     13 C         143.9616  144.9658  163.7846 C.3     1  UNL1        0.2525
     14 O         144.0600  143.4802  163.9676 O.3     1  UNL1       -0.4717
     15 C         141.0026  143.0887  162.4608 C.ar    1  UNL1        0.0245
     16 C         139.6685  143.6001  162.9178 C.ar    1  UNL1        0.0200
     17 C         139.0380  144.7725  162.2265 C.ar    1  UNL1        0.1019
     18 N         139.7415  145.4335  161.0784 N.ar    1  UNL1       -0.2076
     19 C         141.0755  144.9221  160.6215 C.ar    1  UNL1        0.2598
     20 C         141.7061  143.7497  161.3127 C.ar    1  UNL1        0.1879
     21 O         141.7790  145.5831  159.4734 O.3     1  UNL1       -0.4541
     22 C         141.1472  145.5945  158.1130 C.3     1  UNL1        0.2543
     23 O         143.0401  143.2382  160.8559 O.3     1  UNL1       -0.4670
     24 C         143.2016  142.7034  159.4637 C.3     1  UNL1        0.2527
     25 C         141.8862  140.6464  162.3949 C.3     1  UNL1        0.1189
     26 O         143.3641  140.8422  162.5603 O.3     1  UNL1       -0.3819
     27 H         143.6347  141.6571  162.1092 H       1  UNL1        0.2107
     28 C         140.4083  140.4505  162.2296 C.ar    1  UNL1        0.0426
     29 C         139.5552  140.1367  163.4228 C.ar    1  UNL1        0.0219
     30 C         138.0772  139.9408  163.2574 C.ar    1  UNL1        0.1020
     31 N         137.4524  140.0589  161.8988 N.ar    1  UNL1       -0.2076
     32 C         138.3055  140.3727  160.7056 C.ar    1  UNL1        0.2599
     33 C         139.7834  140.5686  160.8710 C.ar    1  UNL1        0.1897
     34 O         140.6365  140.8824  159.6778 O.3     1  UNL1       -0.4670
     35 C         140.0117  141.0005  158.3193 C.3     1  UNL1        0.2527
     36 C         138.5337  140.8046  158.1539 C.3     1  UNL1        0.2543
     37 O         137.6806  140.4908  159.3471 O.3     1  UNL1       -0.4541
     38 C         142.1391  139.3765  161.6378 C.3     1  UNL1        0.0492
     39 C         142.7208  138.1866  162.3419 C.3     1  UNL1        0.0750
     40 N         142.4519  137.9739  163.8023 N.3     1  UNL1       -0.2702
     41 C         143.1238  138.4311  165.0629 C.3     1  UNL1        0.0897
     42 C         141.2836  137.1390  164.2359 C.3     1  UNL1        0.0897
@<TRIPOS>BOND
     1    13    14    1
     2    14     2    1
     3     2     3   ar
     4     3     4   ar
     5     4     5   ar
     6     5     6   ar
     7     6     7   ar
     8     7     8    1
     9     7     9   ar
    10     9    10   ar
    11    10    11   ar
    12    11    12   ar
    13     1    12    1
    14     1    15    1
    15    15    16   ar
    16    16    17   ar
    17    17    18   ar
    18    18    19   ar
    19    19    21    1
    20    21    22    1
    21    19    20   ar
    22    20    23    1
    23    23    24    1
    24     1    25    1
    25    25    26    1
    26    25    38    1
    27    38    39    1
    28    39    40    1
    29    40    41    1
    30    40    42    1
    31    25    28    1
    32    28    29   ar
    33    29    30   ar
    34    30    31   ar
    35    31    32   ar
    36    32    33   ar
    37    33    34    1
    38    34    35    1
    39    35    36    1
    40    36    37    1
    41    12     2   ar
    42    20    15   ar
    43    33    28   ar
    44    10     4   ar
    45    37    32    1
    46    26    27    1
@<TRIPOS>MOLECULE
*****
 42 46 0 0 0
SMALL
GASTEIGER

@<TRIPOS>ATOM
      1 C         141.6052  141.5085  163.8319 C.3     1  UNL1        0.0793
      2 C         142.6142  139.9439  165.6441 C.ar    1  UNL1        0.1351
      3 C         142.7388  139.5311  167.0809 C.ar    1  UNL1        0.0366
      4 C         141.9789  140.2702  168.1421 C.ar    1  UNL1        0.0030
      5 C         142.1034  139.8575  169.5788 C.ar    1  UNL1        0.0006
      6 C         141.3435  140.5966  170.6400 C.ar    1  UNL1        0.0067
      7 C         140.4591  141.7485  170.2646 C.ar    1  UNL1        0.0346
      8 BR        139.6992  142.4876  171.3258 Br      1  UNL1       -0.0490
      9 C         140.3345  142.1612  168.8278 C.ar    1  UNL1        0.0067
     10 C         141.0944  141.4221  167.7666 C.ar    1  UNL1        0.0004
     11 C         140.9698  141.8348  166.3299 C.ar    1  UNL1       -0.0009
     12 C         141.7297  141.0957  165.2687 C.ar    1  UNL1        0.0182
     13 C         144.8717  139.2802  164.5426 C.3     1  UNL1        0.2525
     14 O         143.3741  139.2047  164.5829 O.3     1  UNL1       -0.4717
     15 C         142.6238  142.4268  163.2244 C.ar    1  UNL1        0.0245
     16 C         142.9158  143.7515  163.8646 C.ar    1  UNL1        0.0200
     17 C         143.9344  144.6698  163.2571 C.ar    1  UNL1        0.1019
     18 N         144.6611  144.2634  162.0093 N.ar    1  UNL1       -0.2076
     19 C         144.3691  142.9387  161.3692 C.ar    1  UNL1        0.2598
     20 C         143.3504  142.0204  161.9767 C.ar    1  UNL1        0.1879
     21 O         145.0957  142.5323  160.1215 O.3     1  UNL1       -0.4541
     22 C         144.4040  142.6072  158.7926 C.3     1  UNL1        0.2543
     23 O         143.0584  140.6957  161.3365 O.3     1  UNL1       -0.4670
     24 C         144.1450  139.6697  161.2066 C.3     1  UNL1        0.2527
     25 C         140.4620  141.0029  163.0028 C.3     1  UNL1        0.1189
     26 O         141.0571  139.6262  163.0216 O.3     1  UNL1       -0.3819
     27 H         141.9194  139.6406  162.5777 H       1  UNL1        0.2107
     28 C         139.8669  142.3796  162.9839 C.ar    1  UNL1        0.0426
     29 C         139.1538  142.9052  164.1944 C.ar    1  UNL1        0.0219
     30 C         138.5587  144.2820  164.1754 C.ar    1  UNL1        0.1020
     31 N         138.6766  145.1331  162.9460 N.ar    1  UNL1       -0.2076
     32 C         139.3896  144.6076  161.7355 C.ar    1  UNL1        0.2599
     33 C         139.9847  143.2309  161.7544 C.ar    1  UNL1        0.1897
     34 O         140.6978  142.7053  160.5438 O.3     1  UNL1       -0.4670
     35 C         140.8157  143.5565  159.3144 C.3     1  UNL1        0.2527
     36 C         140.2205  144.9333  159.2955 C.3     1  UNL1        0.2543
     37 O         139.5075  145.4589  160.5060 O.3     1  UNL1       -0.4541
     38 C         139.3188  140.4973  162.1736 C.3     1  UNL1        0.0492
     39 C         138.2059  139.7274  162.8206 C.3     1  UNL1        0.0750
     40 N         138.4103  139.1049  164.1701 N.3     1  UNL1       -0.2702
     41 C         138.2634  139.5993  165.5786 C.3     1  UNL1        0.0897
     42 C         138.8601  137.6781  164.2775 C.3     1  UNL1        0.0897
@<TRIPOS>BOND
     1    13    14    1
     2    14     2    1
     3     2     3   ar
     4     3     4   ar
     5     4     5   ar
     6     5     6   ar
     7     6     7   ar
     8     7     8    1
     9     7     9   ar
    10     9    10   ar
    11    10    11   ar
    12    11    12   ar
    13     1    12    1
    14     1    15    1
    15    15    16   ar
    16    16    17   ar
    17    17    18   ar
    18    18    19   ar
    19    19    21    1
    20    21    22    1
    21    19    20   ar
    22    20    23    1
    23    23    24    1
    24     1    25    1
    25    25    26    1
    26    25    38    1
    27    38    39    1
    28    39    40    1
    29    40    41    1
    30    40    42    1
    31    25    28    1
    32    28    29   ar
    33    29    30   ar
    34    30    31   ar
    35    31    32   ar
    36    32    33   ar
    37    33    34    1
    38    34    35    1
    39    35    36    1
    40    36    37    1
    41    12     2   ar
    42    20    15   ar
    43    33    28   ar
    44    10     4   ar
    45    37    32    1
    46    26    27    1
@<TRIPOS>MOLECULE
*****
 42 46 0 0 0
SMALL
GASTEIGER

@<TRIPOS>ATOM
      1 C         140.2296  140.5923  163.8349 C.3     1  UNL1        0.0793
      2 C         139.2355  139.6254  166.0320 C.ar    1  UNL1        0.1351
      3 C         139.1712  139.6059  167.5305 C.ar    1  UNL1        0.0366
      4 C         140.0367  140.5338  168.3305 C.ar    1  UNL1        0.0030
      5 C         139.9724  140.5143  169.8289 C.ar    1  UNL1        0.0006
      6 C         140.8379  141.4423  170.6289 C.ar    1  UNL1        0.0067
      7 C         141.7676  142.3897  169.9303 C.ar    1  UNL1        0.0346
      8 BR        142.6331  143.3176  170.7303 Br      1  UNL1       -0.0490
      9 C         141.8319  142.4092  168.4318 C.ar    1  UNL1        0.0067
     10 C         140.9665  141.4812  167.6318 C.ar    1  UNL1        0.0004
     11 C         141.0307  141.5007  166.1334 C.ar    1  UNL1       -0.0009
     12 C         140.1653  140.5728  165.3334 C.ar    1  UNL1        0.0182
     13 C         138.1773  137.2788  165.6798 C.3     1  UNL1        0.2525
     14 O         138.3701  138.6974  165.2320 O.3     1  UNL1       -0.4717
     15 C         141.5546  140.4883  163.1397 C.ar    1  UNL1        0.0245
     16 C         142.4021  141.7119  162.9538 C.ar    1  UNL1        0.0200
     17 C         143.7272  141.6079  162.2586 C.ar    1  UNL1        0.1019
     18 N         144.2048  140.2803  161.7492 N.ar    1  UNL1       -0.2076
     19 C         143.3573  139.0567  161.9351 C.ar    1  UNL1        0.2598
     20 C         142.0322  139.1607  162.6304 C.ar    1  UNL1        0.1879
     21 O         143.8349  137.7291  161.4258 O.3     1  UNL1       -0.4541
     22 C         143.2715  137.1667  160.1545 C.3     1  UNL1        0.2543
     23 O         141.1847  137.9371  162.8163 O.3     1  UNL1       -0.4670
     24 C         141.3846  137.0618  164.0180 C.3     1  UNL1        0.2527
     25 C         138.9688  140.7157  163.0317 C.3     1  UNL1        0.1189
     26 O         138.9916  139.2392  162.7688 O.3     1  UNL1       -0.3819
     27 H         139.7876  139.0131  162.2627 H       1  UNL1        0.2107
     28 C         138.9460  142.1923  163.2945 C.ar    1  UNL1        0.0426
     29 C         138.3847  142.7162  164.5831 C.ar    1  UNL1        0.0219
     30 C         138.3619  144.1928  164.8459 C.ar    1  UNL1        0.1020
     31 N         138.9004  145.1456  163.8201 N.ar    1  UNL1       -0.2076
     32 C         139.4616  144.6217  162.5315 C.ar    1  UNL1        0.2599
     33 C         139.4845  143.1452  162.2687 C.ar    1  UNL1        0.1897
     34 O         140.0457  142.6213  160.9800 O.3     1  UNL1       -0.4670
     35 C         140.5842  143.5741  159.9543 C.3     1  UNL1        0.2527
     36 C         140.5614  145.0508  160.2171 C.3     1  UNL1        0.2543
     37 O         140.0001  145.5746  161.5057 O.3     1  UNL1       -0.4541
     38 C         137.7081  140.8392  162.2284 C.3     1  UNL1        0.0492
     39 C         137.4377  139.8826  161.1051 C.3     1  UNL1        0.0750
     40 N         138.3216  139.8799  159.8932 N.3     1  UNL1       -0.2702
     41 C         139.5532  139.1176  159.5035 C.3     1  UNL1        0.0897
     42 C         138.0200  140.7941  158.7429 C.3     1  UNL1        0.0897
@<TRIPOS>BOND
     1    13    14    1
     2    14     2    1
     3     2     3   ar
     4     3     4   ar
     5     4     5   ar
     6     5     6   ar
     7     6     7   ar
     8     7     8    1
     9     7     9   ar
    10     9    10   ar
    11    10    11   ar
    12    11    12   ar
    13     1    12    1
    14     1    15    1
    15    15    16   ar
    16    16    17   ar
    17    17    18   ar
    18    18    19   ar
    19    19    21    1
    20    21    22    1
    21    19    20   ar
    22    20    23    1
    23    23    24    1
    24     1    25    1
    25    25    26    1
    26    25    38    1
    27    38    39    1
    28    39    40    1
    29    40    41    1
    30    40    42    1
    31    25    28    1
    32    28    29   ar
    33    29    30   ar
    34    30    31   ar
    35    31    32   ar
    36    32    33   ar
    37    33    34    1
    38    34    35    1
    39    35    36    1
    40    36    37    1
    41    12     2   ar
    42    20    15   ar
    43    33    28   ar
    44    10     4   ar
    45    37    32    1
    46    26    27    1
@<TRIPOS>MOLECULE
*****
 42 46 0 0 0
SMALL
GASTEIGER

@<TRIPOS>ATOM
      1 C         141.0336  141.1490  162.5075 C.3     1  UNL1        0.0793
      2 C         140.3239  139.5075  164.3921 C.ar    1  UNL1        0.1351
      3 C         140.0231  139.2406  165.8373 C.ar    1  UNL1        0.0366
      4 C         140.1312  140.3483  166.8428 C.ar    1  UNL1        0.0030
      5 C         139.8304  140.0815  168.2879 C.ar    1  UNL1        0.0006
      6 C         139.9384  141.1893  169.2935 C.ar    1  UNL1        0.0067
      7 C         140.3473  142.5639  168.8539 C.ar    1  UNL1        0.0346
      8 BR        140.4554  143.6716  169.8595 Br      1  UNL1       -0.0490
      9 C         140.6482  142.8308  167.4088 C.ar    1  UNL1        0.0067
     10 C         140.5401  141.7230  166.4032 C.ar    1  UNL1        0.0004
     11 C         140.8409  141.9898  164.9582 C.ar    1  UNL1       -0.0009
     12 C         140.7328  140.8821  163.9526 C.ar    1  UNL1        0.0182
     13 C         138.9122  137.6816  163.1990 C.3     1  UNL1        0.2525
     14 O         140.2158  138.3997  163.3866 O.3     1  UNL1       -0.4717
     15 C         140.1264  140.6113  161.4408 C.ar    1  UNL1        0.0245
     16 C         138.6814  141.0131  161.4126 C.ar    1  UNL1        0.0200
     17 C         137.7741  140.4754  160.3460 C.ar    1  UNL1        0.1019
     18 N         138.3118  139.5359  159.3075 N.ar    1  UNL1       -0.2076
     19 C         139.7567  139.1341  159.3358 C.ar    1  UNL1        0.2598
     20 C         140.6639  139.6718  160.4024 C.ar    1  UNL1        0.1879
     21 O         140.2943  138.1946  158.2974 O.3     1  UNL1       -0.4541
     22 C         139.7276  138.2079  156.9086 C.3     1  UNL1        0.2543
     23 O         142.1088  139.2700  160.4307 O.3     1  UNL1       -0.4670
     24 C         142.4952  137.8905  160.8755 C.3     1  UNL1        0.2527
     25 C         142.2417  141.9535  162.1291 C.3     1  UNL1        0.1189
     26 O         143.1308  140.8640  162.6511 O.3     1  UNL1       -0.3819
     27 H         142.9841  140.7557  163.6038 H       1  UNL1        0.2107
     28 C         141.3526  143.0430  161.6070 C.ar    1  UNL1        0.0426
     29 C         140.5914  143.9126  162.5632 C.ar    1  UNL1        0.0219
     30 C         139.7023  145.0021  162.0411 C.ar    1  UNL1        0.1020
     31 N         139.5744  145.2219  160.5629 N.ar    1  UNL1       -0.2076
     32 C         140.3356  144.3523  159.6067 C.ar    1  UNL1        0.2599
     33 C         141.2247  143.2628  160.1287 C.ar    1  UNL1        0.1897
     34 O         141.9859  142.3932  159.1725 O.3     1  UNL1       -0.4670
     35 C         141.8580  142.6130  157.6942 C.3     1  UNL1        0.2527
     36 C         140.9689  143.7025  157.1721 C.3     1  UNL1        0.2543
     37 O         140.2077  144.5722  158.1283 O.3     1  UNL1       -0.4541
     38 C         143.4498  142.7580  161.7506 C.3     1  UNL1        0.0492
     39 C         144.5311  143.0074  162.7599 C.3     1  UNL1        0.0750
     40 N         144.1950  143.6378  164.0789 N.3     1  UNL1       -0.2702
     41 C         144.2399  143.1645  165.5015 C.3     1  UNL1        0.0897
     42 C         143.6917  145.0500  164.1287 C.3     1  UNL1        0.0897
@<TRIPOS>BOND
     1    13    14    1
     2    14     2    1
     3     2     3   ar
     4     3     4   ar
     5     4     5   ar
     6     5     6   ar
     7     6     7   ar
     8     7     8    1
     9     7     9   ar
    10     9    10   ar
    11    10    11   ar
    12    11    12   ar
    13     1    12    1
    14     1    15    1
    15    15    16   ar
    16    16    17   ar
    17    17    18   ar
    18    18    19   ar
    19    19    21    1
    20    21    22    1
    21    19    20   ar
    22    20    23    1
    23    23    24    1
    24     1    25    1
    25    25    26    1
    26    25    38    1
    27    38    39    1
    28    39    40    1
    29    40    41    1
    30    40    42    1
    31    25    28    1
    32    28    29   ar
    33    29    30   ar
    34    30    31   ar
    35    31    32   ar
    36    32    33   ar
    37    33    34    1
    38    34    35    1
    39    35    36    1
    40    36    37    1
    41    12     2   ar
    42    20    15   ar
    43    33    28   ar
    44    10     4   ar
    45    37    32    1
    46    26    27    1
@<TRIPOS>MOLECULE
*****
 42 46 0 0 0
SMALL
GASTEIGER

@<TRIPOS>ATOM
      1 C         141.6288  141.5417  162.3854 C.3     1  UNL1        0.0793
      2 C         143.2646  142.0713  164.3332 C.ar    1  UNL1        0.1351
      3 C         143.5541  142.1433  165.8032 C.ar    1  UNL1        0.0366
      4 C         142.4974  141.7578  166.7955 C.ar    1  UNL1        0.0030
      5 C         142.7869  141.8298  168.2655 C.ar    1  UNL1        0.0006
      6 C         141.7301  141.4443  169.2578 C.ar    1  UNL1        0.0067
      7 C         140.3839  140.9868  168.7801 C.ar    1  UNL1        0.0346
      8 BR        139.3271  140.6013  169.7724 Br      1  UNL1       -0.0490
      9 C         140.0943  140.9148  167.3101 C.ar    1  UNL1        0.0067
     10 C         141.1511  141.3003  166.3178 C.ar    1  UNL1        0.0004
     11 C         140.8616  141.2282  164.8478 C.ar    1  UNL1       -0.0009
     12 C         141.9183  141.6137  163.8555 C.ar    1  UNL1        0.0182
     13 C         145.6434  141.7480  163.3397 C.3     1  UNL1        0.2525
     14 O         144.3213  142.4568  163.3408 O.3     1  UNL1       -0.4717
     15 C         142.1462  140.3907  161.5746 C.ar    1  UNL1        0.0245
     16 C         141.8493  138.9823  161.9970 C.ar    1  UNL1        0.0200
     17 C         142.3667  137.8312  161.1862 C.ar    1  UNL1        0.1019
     18 N         143.1811  138.0886  159.9530 N.ar    1  UNL1       -0.2076
     19 C         143.4780  139.4969  159.5307 C.ar    1  UNL1        0.2598
     20 C         142.9606  140.6480  160.3415 C.ar    1  UNL1        0.1879
     21 O         144.2924  139.7542  158.2977 O.3     1  UNL1       -0.4541
     22 C         143.6090  140.0570  156.9971 C.3     1  UNL1        0.2543
     23 O         143.2575  142.0563  159.9192 O.3     1  UNL1       -0.4670
     24 C         144.6713  142.5578  159.9217 C.3     1  UNL1        0.2527
     25 C         140.8218  142.6206  161.7262 C.3     1  UNL1        0.1189
     26 O         141.9133  143.6098  162.0090 O.3     1  UNL1       -0.3819
     27 H         142.0264  143.7011  162.9681 H       1  UNL1        0.2107
     28 C         139.7303  141.6315  161.4433 C.ar    1  UNL1        0.0426
     29 C         138.9239  141.0612  162.5723 C.ar    1  UNL1        0.0219
     30 C         137.8323  140.0719  162.2893 C.ar    1  UNL1        0.1020
     31 N         137.5472  139.6530  160.8776 N.ar    1  UNL1       -0.2076
     32 C         138.3536  140.2233  159.7486 C.ar    1  UNL1        0.2599
     33 C         139.4451  141.2125  160.0315 C.ar    1  UNL1        0.1897
     34 O         140.2515  141.7828  158.9025 O.3     1  UNL1       -0.4670
     35 C         139.9664  141.3639  157.4907 C.3     1  UNL1        0.2527
     36 C         138.8748  140.3747  157.2078 C.3     1  UNL1        0.2543
     37 O         138.0684  139.8044  158.3368 O.3     1  UNL1       -0.4541
     38 C         140.0148  143.6996  161.0669 C.3     1  UNL1        0.0492
     39 C         139.5246  144.8670  161.8712 C.3     1  UNL1        0.0750
     40 N         139.0512  144.6615  163.2797 N.3     1  UNL1       -0.2702
     41 C         139.7122  144.7446  164.6236 C.3     1  UNL1        0.0897
     42 C         137.6230  144.2868  163.5439 C.3     1  UNL1        0.0897
@<TRIPOS>BOND
     1    13    14    1
     2    14     2    1
     3     2     3   ar
     4     3     4   ar
     5     4     5   ar
     6     5     6   ar
     7     6     7   ar
     8     7     8    1
     9     7     9   ar
    10     9    10   ar
    11    10    11   ar
    12    11    12   ar
    13     1    12    1
    14     1    15    1
    15    15    16   ar
    16    16    17   ar
    17    17    18   ar
    18    18    19   ar
    19    19    21    1
    20    21    22    1
    21    19    20   ar
    22    20    23    1
    23    23    24    1
    24     1    25    1
    25    25    26    1
    26    25    38    1
    27    38    39    1
    28    39    40    1
    29    40    41    1
    30    40    42    1
    31    25    28    1
    32    28    29   ar
    33    29    30   ar
    34    30    31   ar
    35    31    32   ar
    36    32    33   ar
    37    33    34    1
    38    34    35    1
    39    35    36    1
    40    36    37    1
    41    12     2   ar
    42    20    15   ar
    43    33    28   ar
    44    10     4   ar
    45    37    32    1
    46    26    27    1
@<TRIPOS>MOLECULE
*****
 42 46 0 0 0
SMALL
GASTEIGER

@<TRIPOS>ATOM
      1 C         140.6886  141.2300  162.6194 C.3     1  UNL1        0.0793
      2 C         139.9773  142.9251  164.4554 C.ar    1  UNL1        0.1351
      3 C         139.9461  143.3432  165.8956 C.ar    1  UNL1        0.0366
      4 C         140.5949  142.4841  166.9402 C.ar    1  UNL1        0.0030
      5 C         140.5636  142.9021  168.3804 C.ar    1  UNL1        0.0006
      6 C         141.2124  142.0430  169.4249 C.ar    1  UNL1        0.0067
      7 C         141.8924  140.7660  169.0293 C.ar    1  UNL1        0.0346
      8 BR        142.5412  139.9069  170.0738 Br      1  UNL1       -0.0490
      9 C         141.9237  140.3479  167.5890 C.ar    1  UNL1        0.0067
     10 C         141.2749  141.2070  166.5444 C.ar    1  UNL1        0.0004
     11 C         141.3062  140.7890  165.1042 C.ar    1  UNL1       -0.0009
     12 C         140.6574  141.6481  164.0597 C.ar    1  UNL1        0.0182
     13 C         137.8391  143.9620  163.4052 C.3     1  UNL1        0.2525
     14 O         139.3285  143.7842  163.4108 O.3     1  UNL1       -0.4717
     15 C         141.3210  142.1225  161.5930 C.ar    1  UNL1        0.0245
     16 C         142.7950  142.3962  161.6432 C.ar    1  UNL1        0.0200
     17 C         143.4275  143.2887  160.6167 C.ar    1  UNL1        0.1019
     18 N         142.5859  143.9074  159.5401 N.ar    1  UNL1       -0.2076
     19 C         141.1119  143.6337  159.4900 C.ar    1  UNL1        0.2598
     20 C         140.4795  142.7412  160.5164 C.ar    1  UNL1        0.1879
     21 O         140.2704  144.2524  158.4135 O.3     1  UNL1       -0.4541
     22 C         140.3605  145.7253  158.1446 C.3     1  UNL1        0.2543
     23 O         139.0056  142.4674  160.4663 O.3     1  UNL1       -0.4670
     24 C         138.4190  141.7301  159.2991 C.3     1  UNL1        0.2527
     25 C         140.0875  139.9195  162.2056 C.3     1  UNL1        0.1189
     26 O         138.7316  140.4115  162.6173 O.3     1  UNL1       -0.3819
     27 H         138.7279  140.5889  163.5710 H       1  UNL1        0.2107
     28 C         141.4434  139.4276  161.7939 C.ar    1  UNL1        0.0426
     29 C         142.4800  139.1262  162.8353 C.ar    1  UNL1        0.0219
     30 C         143.8359  138.6342  162.4236 C.ar    1  UNL1        0.1020
     31 N         144.1552  138.4437  160.9704 N.ar    1  UNL1       -0.2076
     32 C         143.1186  138.7451  159.9290 C.ar    1  UNL1        0.2599
     33 C         141.7627  139.2370  160.3407 C.ar    1  UNL1        0.1897
     34 O         140.7261  139.5384  159.2992 O.3     1  UNL1       -0.4670
     35 C         141.0453  139.3479  157.8461 C.3     1  UNL1        0.2527
     36 C         142.4013  138.8559  157.4343 C.3     1  UNL1        0.2543
     37 O         143.4379  138.5545  158.4757 O.3     1  UNL1       -0.4541
     38 C         139.4864  138.6091  161.7918 C.3     1  UNL1        0.0492
     39 C         138.7483  137.7726  162.7946 C.3     1  UNL1        0.0750
     40 N         139.1381  137.8192  164.2423 N.3     1  UNL1       -0.2702
     41 C         138.5151  138.4135  165.4705 C.3     1  UNL1        0.0897
     42 C         140.4090  137.1658  164.6982 C.3     1  UNL1        0.0897
@<TRIPOS>BOND
     1    13    14    1
     2    14     2    1
     3     2     3   ar
     4     3     4   ar
     5     4     5   ar
     6     5     6   ar
     7     6     7   ar
     8     7     8    1
     9     7     9   ar
    10     9    10   ar
    11    10    11   ar
    12    11    12   ar
    13     1    12    1
    14     1    15    1
    15    15    16   ar
    16    16    17   ar
    17    17    18   ar
    18    18    19   ar
    19    19    21    1
    20    21    22    1
    21    19    20   ar
    22    20    23    1
    23    23    24    1
    24     1    25    1
    25    25    26    1
    26    25    38    1
    27    38    39    1
    28    39    40    1
    29    40    41    1
    30    40    42    1
    31    25    28    1
    32    28    29   ar
    33    29    30   ar
    34    30    31   ar
    35    31    32   ar
    36    32    33   ar
    37    33    34    1
    38    34    35    1
    39    35    36    1
    40    36    37    1
    41    12     2   ar
    42    20    15   ar
    43    33    28   ar
    44    10     4   ar
    45    37    32    1
    46    26    27    1
@<TRIPOS>MOLECULE
*****
 42 46 0 0 0
SMALL
GASTEIGER

@<TRIPOS>ATOM
      1 C         141.8527  141.8140  162.9429 C.3     1  UNL1        0.0793
      2 C         143.3806  142.8045  164.7961 C.ar    1  UNL1        0.1351
      3 C         143.7598  142.9203  166.2428 C.ar    1  UNL1        0.0366
      4 C         142.9902  142.1614  167.2829 C.ar    1  UNL1        0.0030
      5 C         143.3693  142.2772  168.7296 C.ar    1  UNL1        0.0006
      6 C         142.5997  141.5183  169.7697 C.ar    1  UNL1        0.0067
      7 C         141.4509  140.6436  169.3631 C.ar    1  UNL1        0.0346
      8 BR        140.6813  139.8848  170.4032 Br      1  UNL1       -0.0490
      9 C         141.0718  140.5278  167.9164 C.ar    1  UNL1        0.0067
     10 C         141.8414  141.2867  166.8763 C.ar    1  UNL1        0.0004
     11 C         141.4622  141.1709  165.4297 C.ar    1  UNL1       -0.0009
     12 C         142.2319  141.9298  164.3896 C.ar    1  UNL1        0.0182
     13 C         143.9402  145.0400  163.5964 C.3     1  UNL1        0.2525
     14 O         144.1502  143.5633  163.7560 O.3     1  UNL1       -0.4717
     15 C         141.0933  142.9221  162.2756 C.ar    1  UNL1        0.0245
     16 C         139.7056  143.2619  162.7330 C.ar    1  UNL1        0.0200
     17 C         138.9462  144.3700  162.0658 C.ar    1  UNL1        0.1019
     18 N         139.5744  145.1384  160.9410 N.ar    1  UNL1       -0.2076
     19 C         140.9620  144.7987  160.4836 C.ar    1  UNL1        0.2598
     20 C         141.7214  143.6905  161.1509 C.ar    1  UNL1        0.1879
     21 O         141.5901  145.5671  159.3589 O.3     1  UNL1       -0.4541
     22 C         140.8973  145.6543  158.0313 C.3     1  UNL1        0.2543
     23 O         143.1089  143.3508  160.6935 O.3     1  UNL1       -0.4670
     24 C         143.3551  142.9696  159.2637 C.3     1  UNL1        0.2527
     25 C         142.2329  140.5901  162.1636 C.3     1  UNL1        0.1189
     26 O         143.6713  141.0138  162.2000 O.3     1  UNL1       -0.3819
     27 H         143.7724  141.8557  161.7289 H       1  UNL1        0.2107
     28 C         140.7945  140.1664  162.1271 C.ar    1  UNL1        0.0426
     29 C         140.1547  139.5783  163.3498 C.ar    1  UNL1        0.0219
     30 C         138.7161  139.1546  163.3133 C.ar    1  UNL1        0.1020
     31 N         137.9176  139.3190  162.0543 N.ar    1  UNL1       -0.2076
     32 C         138.5574  139.9070  160.8317 C.ar    1  UNL1        0.2599
     33 C         139.9958  140.3307  160.8681 C.ar    1  UNL1        0.1897
     34 O         140.6357  140.9187  159.6454 O.3     1  UNL1       -0.4670
     35 C         139.8371  141.0831  158.3864 C.3     1  UNL1        0.2527
     36 C         138.3986  140.6594  158.3499 C.3     1  UNL1        0.2543
     37 O         137.7588  140.0713  159.5726 O.3     1  UNL1       -0.4541
     38 C         142.6132  139.3662  161.3842 C.3     1  UNL1        0.0492
     39 C         143.6729  139.4501  160.3260 C.3     1  UNL1        0.0750
     40 N         143.3515  139.0702  158.9109 N.3     1  UNL1       -0.2702
     41 C         143.5590  139.7329  157.5813 C.3     1  UNL1        0.0897
     42 C         142.6721  137.7647  158.6206 C.3     1  UNL1        0.0897
@<TRIPOS>BOND
     1    13    14    1
     2    14     2    1
     3     2     3   ar
     4     3     4   ar
     5     4     5   ar
     6     5     6   ar
     7     6     7   ar
     8     7     8    1
     9     7     9   ar
    10     9    10   ar
    11    10    11   ar
    12    11    12   ar
    13     1    12    1
    14     1    15    1
    15    15    16   ar
    16    16    17   ar
    17    17    18   ar
    18    18    19   ar
    19    19    21    1
    20    21    22    1
    21    19    20   ar
    22    20    23    1
    23    23    24    1
    24     1    25    1
    25    25    26    1
    26    25    38    1
    27    38    39    1
    28    39    40    1
    29    40    41    1
    30    40    42    1
    31    25    28    1
    32    28    29   ar
    33    29    30   ar
    34    30    31   ar
    35    31    32   ar
    36    32    33   ar
    37    33    34    1
    38    34    35    1
    39    35    36    1
    40    36    37    1
    41    12     2   ar
    42    20    15   ar
    43    33    28   ar
    44    10     4   ar
    45    37    32    1
    46    26    27    1
@<TRIPOS>MOLECULE
*****
 42 46 0 0 0
SMALL
GASTEIGER

@<TRIPOS>ATOM
      1 C         141.0640  141.3515  162.9726 C.3     1  UNL1        0.0793
      2 C         140.0189  142.8774  164.7974 C.ar    1  UNL1        0.1351
      3 C         139.8845  143.2751  166.2375 C.ar    1  UNL1        0.0366
      4 C         140.6608  142.5447  167.2929 C.ar    1  UNL1        0.0030
      5 C         140.5264  142.9424  168.7329 C.ar    1  UNL1        0.0006
      6 C         141.3027  142.2120  169.7883 C.ar    1  UNL1        0.0067
      7 C         142.2134  141.0839  169.4036 C.ar    1  UNL1        0.0346
      8 BR        142.9897  140.3535  170.4590 Br      1  UNL1       -0.0490
      9 C         142.3479  140.6862  167.9635 C.ar    1  UNL1        0.0067
     10 C         141.5715  141.4166  166.9082 C.ar    1  UNL1        0.0004
     11 C         141.7059  141.0189  165.4681 C.ar    1  UNL1       -0.0009
     12 C         140.9296  141.7493  164.4127 C.ar    1  UNL1        0.0182
     13 C         137.8941  144.1805  164.0643 C.3     1  UNL1        0.2525
     14 O         139.2426  143.6078  163.7420 O.3     1  UNL1       -0.4717
     15 C         140.1244  140.3422  162.3825 C.ar    1  UNL1        0.0245
     16 C         139.9834  138.9892  163.0148 C.ar    1  UNL1        0.0200
     17 C         139.0438  137.9798  162.4246 C.ar    1  UNL1        0.1019
     18 N         138.2451  138.3234  161.2022 N.ar    1  UNL1       -0.2076
     19 C         138.3861  139.6763  160.5701 C.ar    1  UNL1        0.2598
     20 C         139.3258  140.6857  161.1602 C.ar    1  UNL1        0.1879
     21 O         137.5875  140.0199  159.3477 O.3     1  UNL1       -0.4541
     22 C         138.2834  140.2669  158.0421 C.3     1  UNL1        0.2543
     23 O         139.4668  142.0386  160.5280 O.3     1  UNL1       -0.4670
     24 C         138.3304  143.0161  160.5867 C.3     1  UNL1        0.2527
     25 C         142.1381  141.9632  162.1227 C.3     1  UNL1        0.1189
     26 O         141.5033  143.3117  162.2911 O.3     1  UNL1       -0.3819
     27 H         140.6162  143.3028  161.8989 H       1  UNL1        0.2107
     28 C         142.7728  140.6146  161.9544 C.ar    1  UNL1        0.0426
     29 C         143.4457  139.9516  163.1196 C.ar    1  UNL1        0.0219
     30 C         144.0805  138.6030  162.9512 C.ar    1  UNL1        0.1020
     31 N         144.0423  137.9174  161.6176 N.ar    1  UNL1       -0.2076
     32 C         143.3694  138.5803  160.4524 C.ar    1  UNL1        0.2599
     33 C         142.7347  139.9289  160.6208 C.ar    1  UNL1        0.1897
     34 O         142.0617  140.5918  159.4556 O.3     1  UNL1       -0.4670
     35 C         142.0236  139.9062  158.1220 C.3     1  UNL1        0.2527
     36 C         142.6584  138.5576  157.9536 C.3     1  UNL1        0.2543
     37 O         143.3313  137.8946  159.1188 O.3     1  UNL1       -0.4541
     38 C         143.2121  142.5748  161.2729 C.3     1  UNL1        0.0492
     39 C         144.3033  143.3831  161.9099 C.3     1  UNL1        0.0750
     40 N         144.2096  143.7594  163.3590 N.3     1  UNL1       -0.2702
     41 C         144.5636  143.0652  164.6407 C.3     1  UNL1        0.0897
     42 C         143.6584  145.0978  163.7522 C.3     1  UNL1        0.0897
@<TRIPOS>BOND
     1    13    14    1
     2    14     2    1
     3     2     3   ar
     4     3     4   ar
     5     4     5   ar
     6     5     6   ar
     7     6     7   ar
     8     7     8    1
     9     7     9   ar
    10     9    10   ar
    11    10    11   ar
    12    11    12   ar
    13     1    12    1
    14     1    15    1
    15    15    16   ar
    16    16    17   ar
    17    17    18   ar
    18    18    19   ar
    19    19    21    1
    20    21    22    1
    21    19    20   ar
    22    20    23    1
    23    23    24    1
    24     1    25    1
    25    25    26    1
    26    25    38    1
    27    38    39    1
    28    39    40    1
    29    40    41    1
    30    40    42    1
    31    25    28    1
    32    28    29   ar
    33    29    30   ar
    34    30    31   ar
    35    31    32   ar
    36    32    33   ar
    37    33    34    1
    38    34    35    1
    39    35    36    1
    40    36    37    1
    41    12     2   ar
    42    20    15   ar
    43    33    28   ar
    44    10     4   ar
    45    37    32    1
    46    26    27    1
@<TRIPOS>MOLECULE
*****
 42 46 0 0 0
SMALL
GASTEIGER

@<TRIPOS>ATOM
      1 C         140.8040  140.6939  163.7739 C.3     1  UNL1        0.0793
      2 C         139.5481  139.8766  165.8963 C.ar    1  UNL1        0.1351
      3 C         139.3650  139.8943  167.3851 C.ar    1  UNL1        0.0366
      4 C         140.2547  140.7472  168.2400 C.ar    1  UNL1        0.0030
      5 C         140.0717  140.7650  169.7286 C.ar    1  UNL1        0.0006
      6 C         140.9614  141.6179  170.5836 C.ar    1  UNL1        0.0067
      7 C         142.0342  142.4530  169.9499 C.ar    1  UNL1        0.0346
      8 BR        142.9240  143.3059  170.8048 Br      1  UNL1       -0.0490
      9 C         142.2173  142.4352  168.4611 C.ar    1  UNL1        0.0067
     10 C         141.3276  141.5824  167.6062 C.ar    1  UNL1        0.0004
     11 C         141.5106  141.5646  166.1176 C.ar    1  UNL1       -0.0009
     12 C         140.6209  140.7117  165.2626 C.ar    1  UNL1        0.0182
     13 C         138.5080  137.5615  165.3406 C.3     1  UNL1        0.2525
     14 O         138.6583  139.0237  165.0414 O.3     1  UNL1       -0.4717
     15 C         139.9134  141.5251  162.8988 C.ar    1  UNL1        0.0245
     16 C         139.1517  140.8822  161.7777 C.ar    1  UNL1        0.0200
     17 C         138.2611  141.7134  160.9026 C.ar    1  UNL1        0.1019
     18 N         138.1321  143.1876  161.1485 N.ar    1  UNL1       -0.2076
     19 C         138.8938  143.8304  162.2695 C.ar    1  UNL1        0.2598
     20 C         139.7844  142.9992  163.1446 C.ar    1  UNL1        0.1879
     21 O         138.7648  145.3044  162.5153 O.3     1  UNL1       -0.4541
     22 C         139.5243  146.2764  161.6619 C.3     1  UNL1        0.2543
     23 O         140.5460  143.6420  164.2656 O.3     1  UNL1       -0.4670
     24 C         141.5371  144.7292  163.9724 C.3     1  UNL1        0.2527
     25 C         141.8777  139.8449  163.1604 C.3     1  UNL1        0.1189
     26 O         141.0135  138.6305  163.3284 O.3     1  UNL1       -0.3819
     27 H         140.8502  138.4780  164.2723 H       1  UNL1        0.2107
     28 C         142.7419  141.0594  162.9924 C.ar    1  UNL1        0.0426
     29 C         143.5702  141.5551  164.1405 C.ar    1  UNL1        0.0219
     30 C         144.4345  142.7696  163.9724 C.ar    1  UNL1        0.1020
     31 N         144.4704  143.4883  162.6563 N.ar    1  UNL1       -0.2076
     32 C         143.6420  142.9925  161.5082 C.ar    1  UNL1        0.2599
     33 C         142.7778  141.7781  161.6762 C.ar    1  UNL1        0.1897
     34 O         141.9495  141.2824  160.5281 O.3     1  UNL1       -0.4670
     35 C         141.9854  142.0011  159.2120 C.3     1  UNL1        0.2527
     36 C         142.8496  143.2156  159.0440 C.3     1  UNL1        0.2543
     37 O         143.6780  143.7113  160.1921 O.3     1  UNL1       -0.4541
     38 C         142.9514  138.9960  162.5469 C.3     1  UNL1        0.0492
     39 C         142.5812  137.8284  161.6810 C.3     1  UNL1        0.0750
     40 N         141.9649  138.0599  160.3331 N.3     1  UNL1       -0.2702
     41 C         140.5618  138.2877  159.8541 C.3     1  UNL1        0.0897
     42 C         142.8306  138.0950  159.1086 C.3     1  UNL1        0.0897
@<TRIPOS>BOND
     1    13    14    1
     2    14     2    1
     3     2     3   ar
     4     3     4   ar
     5     4     5   ar
     6     5     6   ar
     7     6     7   ar
     8     7     8    1
     9     7     9   ar
    10     9    10   ar
    11    10    11   ar
    12    11    12   ar
    13     1    12    1
    14     1    15    1
    15    15    16   ar
    16    16    17   ar
    17    17    18   ar
    18    18    19   ar
    19    19    21    1
    20    21    22    1
    21    19    20   ar
    22    20    23    1
    23    23    24    1
    24     1    25    1
    25    25    26    1
    26    25    38    1
    27    38    39    1
    28    39    40    1
    29    40    41    1
    30    40    42    1
    31    25    28    1
    32    28    29   ar
    33    29    30   ar
    34    30    31   ar
    35    31    32   ar
    36    32    33   ar
    37    33    34    1
    38    34    35    1
    39    35    36    1
    40    36    37    1
    41    12     2   ar
    42    20    15   ar
    43    33    28   ar
    44    10     4   ar
    45    37    32    1
    46    26    27    1
