@<TRIPOS>MOLECULE
*****
 29 32 0 0 0
SMALL
GASTEIGER

@<TRIPOS>ATOM
      1 C         140.8715  138.7724  164.0082 C.2     1  UNL1        0.1157
      2 N         140.1491  138.9046  165.3161 N.2     1  UNL1       -0.1790
      3 N         140.8103  139.9975  166.1024 N.pl3   1  UNL1       -0.2061
      4 C         140.5286  140.5682  167.4607 C.ar    1  UNL1        0.1026
      5 C         139.3975  140.0250  168.2826 C.ar    1  UNL1        0.0151
      6 C         139.1158  140.5957  169.6409 C.ar    1  UNL1       -0.0204
      7 C         137.9846  140.0525  170.4628 C.3     1  UNL1        0.0311
      8 C         139.9652  141.7096  170.1773 C.ar    1  UNL1       -0.0011
      9 C         141.0963  142.2528  169.3554 C.ar    1  UNL1        0.0379
     10 C         141.3780  141.6821  167.9971 C.ar    1  UNL1        0.1535
     11 O         142.5091  142.2253  167.1752 O.3     1  UNL1       -0.4723
     12 C         142.7908  141.6546  165.8170 C.3     1  UNL1        0.2277
     13 C         141.9414  140.5407  165.2806 C.3     1  UNL1        0.1488
     14 C         141.9793  139.7836  163.9862 C.3     1  UNL1        0.0806
     15 C         143.1459  140.6754  163.6803 C.ar    1  UNL1       -0.0157
     16 C         144.4955  140.3699  164.2593 C.ar    1  UNL1       -0.0039
     17 C         145.6622  141.2618  163.9533 C.ar    1  UNL1       -0.0003
     18 C         145.4792  142.4591  163.0685 C.ar    1  UNL1       -0.0000
     19 C         144.1296  142.7646  162.4895 C.ar    1  UNL1       -0.0003
     20 C         142.9629  141.8727  162.7954 C.ar    1  UNL1       -0.0039
     21 C         139.6321  138.2085  161.7955 C.3     1  UNL1        0.0786
     22 C         140.5438  137.7997  162.9143 C.2     1  UNL1        0.1887
     23 O         141.1277  136.4183  162.9392 O.2     1  UNL1       -0.2900
     24 C         142.2610  139.2129  162.6279 C.3     1  UNL1        0.0130
     25 C         143.5633  138.5178  162.3618 C.3     1  UNL1        0.0181
     26 C         143.8494  137.9565  161.0006 C.3     1  UNL1        0.0722
     27 N         143.3844  138.6865  159.7754 N.3     1  UNL1       -0.2703
     28 C         142.4139  138.0336  158.8365 C.3     1  UNL1        0.0897
     29 C         143.8901  140.0694  159.4892 C.3     1  UNL1        0.0897
@<TRIPOS>BOND
     1    21    22    1
     2    22    23    2
     3    22     1    1
     4     1     2    2
     5     2     3    1
     6     3     4    1
     7     4     5   ar
     8     5     6   ar
     9     6     7    1
    10     6     8   ar
    11     8     9   ar
    12     9    10   ar
    13    10    11    1
    14    11    12    1
    15    13    12    1
    16    13    14    1
    17    14    24    1
    18    24    25    1
    19    25    26    1
    20    26    27    1
    21    27    28    1
    22    27    29    1
    23    14    15    1
    24    15    16   ar
    25    16    17   ar
    26    17    18   ar
    27    18    19   ar
    28    19    20   ar
    29    14     1    1
    30    20    15   ar
    31    13     3    1
    32    10     4   ar
@<TRIPOS>MOLECULE
*****
 29 32 0 0 0
SMALL
GASTEIGER

@<TRIPOS>ATOM
      1 C         140.1100  143.4895  162.9285 C.2     1  UNL1        0.1157
      2 N         140.2521  143.7134  164.4049 N.2     1  UNL1       -0.1790
      3 N         140.0327  142.4003  165.0960 N.pl3   1  UNL1       -0.2061
      4 C         140.0500  142.0138  166.5453 C.ar    1  UNL1        0.1026
      5 C         140.3277  143.0492  167.5944 C.ar    1  UNL1        0.0151
      6 C         140.3449  142.6626  169.0436 C.ar    1  UNL1       -0.0204
      7 C         140.6226  143.6980  170.0929 C.3     1  UNL1        0.0311
      8 C         140.0845  141.2406  169.4437 C.ar    1  UNL1       -0.0011
      9 C         139.8068  140.2052  168.3945 C.ar    1  UNL1        0.0379
     10 C         139.7895  140.5917  166.9453 C.ar    1  UNL1        0.1535
     11 O         139.5118  139.5563  165.8961 O.3     1  UNL1       -0.4723
     12 C         139.4946  139.9429  164.4469 C.3     1  UNL1        0.2277
     13 C         139.7550  141.3649  164.0469 C.3     1  UNL1        0.1488
     14 C         139.8028  142.0380  162.7072 C.3     1  UNL1        0.0806
     15 C         139.4920  140.6674  162.1830 C.ar    1  UNL1       -0.0157
     16 C         138.0847  140.1499  162.2245 C.ar    1  UNL1       -0.0039
     17 C         137.7738  138.7792  161.7003 C.ar    1  UNL1       -0.0003
     18 C         138.8703  137.9262  161.1345 C.ar    1  UNL1       -0.0000
     19 C         140.2776  138.4437  161.0930 C.ar    1  UNL1       -0.0003
     20 C         140.5884  139.8144  161.6173 C.ar    1  UNL1       -0.0039
     21 C         141.5272  144.6422  161.0811 C.3     1  UNL1        0.0786
     22 C         140.2504  144.5337  161.8608 C.2     1  UNL1        0.1887
     23 O         139.1139  145.4694  161.5728 O.2     1  UNL1       -0.2900
     24 C         139.7855  142.4246  161.2580 C.3     1  UNL1        0.0130
     25 C         138.5052  142.3586  160.4793 C.3     1  UNL1        0.0181
     26 C         138.4978  142.6970  159.0180 C.3     1  UNL1        0.0722
     27 N         138.1060  141.6579  158.0096 N.3     1  UNL1       -0.2703
     28 C         137.2744  142.0416  156.8217 C.3     1  UNL1        0.0897
     29 C         138.5459  140.2351  158.1891 C.3     1  UNL1        0.0897
@<TRIPOS>BOND
     1    21    22    1
     2    22    23    2
     3    22     1    1
     4     1     2    2
     5     2     3    1
     6     3     4    1
     7     4     5   ar
     8     5     6   ar
     9     6     7    1
    10     6     8   ar
    11     8     9   ar
    12     9    10   ar
    13    10    11    1
    14    11    12    1
    15    13    12    1
    16    13    14    1
    17    14    24    1
    18    24    25    1
    19    25    26    1
    20    26    27    1
    21    27    28    1
    22    27    29    1
    23    14    15    1
    24    15    16   ar
    25    16    17   ar
    26    17    18   ar
    27    18    19   ar
    28    19    20   ar
    29    14     1    1
    30    20    15   ar
    31    13     3    1
    32    10     4   ar
@<TRIPOS>MOLECULE
*****
 29 32 0 0 0
SMALL
GASTEIGER

@<TRIPOS>ATOM
      1 C         139.7284  143.3569  163.7792 C.2     1  UNL1        0.1157
      2 N         140.3916  143.4346  165.1224 N.2     1  UNL1       -0.1790
      3 N         140.7678  142.0423  165.5347 N.pl3   1  UNL1       -0.2061
      4 C         141.4470  141.5076  166.7607 C.ar    1  UNL1        0.1026
      5 C         141.8777  142.4457  167.8490 C.ar    1  UNL1        0.0151
      6 C         142.5568  141.9110  169.0748 C.ar    1  UNL1       -0.0204
      7 C         142.9875  142.8491  170.1632 C.3     1  UNL1        0.0311
      8 C         142.8052  140.4381  169.2124 C.ar    1  UNL1       -0.0011
      9 C         142.3746  139.5000  168.1241 C.ar    1  UNL1        0.0379
     10 C         141.6955  140.0347  166.8983 C.ar    1  UNL1        0.1535
     11 O         141.2647  139.0966  165.8099 O.3     1  UNL1       -0.4723
     12 C         140.5856  139.6313  164.5840 C.3     1  UNL1        0.2277
     13 C         140.3372  141.1042  164.4464 C.3     1  UNL1        0.1488
     14 C         139.6948  141.9167  163.3615 C.3     1  UNL1        0.0806
     15 C         139.5191  140.5882  162.6874 C.ar    1  UNL1       -0.0157
     16 C         140.6626  139.9700  161.9390 C.ar    1  UNL1       -0.0039
     17 C         140.4870  138.6415  161.2649 C.ar    1  UNL1       -0.0003
     18 C         139.1679  137.9313  161.3392 C.ar    1  UNL1       -0.0000
     19 C         138.0244  138.5495  162.0876 C.ar    1  UNL1       -0.0003
     20 C         138.2000  139.8780  162.7617 C.ar    1  UNL1       -0.0039
     21 C         140.1342  145.5394  162.4293 C.3     1  UNL1        0.0786
     22 C         139.1929  144.5161  162.9920 C.2     1  UNL1        0.1887
     23 O         137.7160  144.6518  162.7676 O.2     1  UNL1       -0.2900
     24 C         139.0156  142.4514  162.1355 C.3     1  UNL1        0.0130
     25 C         139.6844  142.3377  160.7977 C.3     1  UNL1        0.0181
     26 C         139.0284  142.9171  159.5796 C.3     1  UNL1        0.0722
     27 N         138.3004  142.0211  158.6218 N.3     1  UNL1       -0.2703
     28 C         138.1271  140.5657  158.9405 C.3     1  UNL1        0.0897
     29 C         137.7459  142.5806  157.3453 C.3     1  UNL1        0.0897
@<TRIPOS>BOND
     1    21    22    1
     2    22    23    2
     3    22     1    1
     4     1     2    2
     5     2     3    1
     6     3     4    1
     7     4     5   ar
     8     5     6   ar
     9     6     7    1
    10     6     8   ar
    11     8     9   ar
    12     9    10   ar
    13    10    11    1
    14    11    12    1
    15    13    12    1
    16    13    14    1
    17    14    24    1
    18    24    25    1
    19    25    26    1
    20    26    27    1
    21    27    28    1
    22    27    29    1
    23    14    15    1
    24    15    16   ar
    25    16    17   ar
    26    17    18   ar
    27    18    19   ar
    28    19    20   ar
    29    14     1    1
    30    20    15   ar
    31    13     3    1
    32    10     4   ar
@<TRIPOS>MOLECULE
*****
 29 32 0 0 0
SMALL
GASTEIGER

@<TRIPOS>ATOM
      1 C         143.8146  141.8439  164.0423 C.2     1  UNL1        0.1157
      2 N         143.7963  142.2931  165.4733 N.2     1  UNL1       -0.1790
      3 N         142.7099  141.5397  166.1817 N.pl3   1  UNL1       -0.2061
      4 C         142.2309  141.5686  167.6030 C.ar    1  UNL1        0.1026
      5 C         142.8841  142.4834  168.5961 C.ar    1  UNL1        0.0151
      6 C         142.4052  142.5122  170.0173 C.ar    1  UNL1       -0.0204
      7 C         143.0584  143.4271  171.0105 C.3     1  UNL1        0.0311
      8 C         141.2730  141.6262  170.4453 C.ar    1  UNL1       -0.0011
      9 C         140.6198  140.7113  169.4521 C.ar    1  UNL1        0.0379
     10 C         141.0988  140.6825  168.0310 C.ar    1  UNL1        0.1535
     11 O         140.4456  139.7677  167.0378 O.3     1  UNL1       -0.4723
     12 C         140.9245  139.7389  165.6166 C.3     1  UNL1        0.2277
     13 C         142.0567  140.6249  165.1886 C.3     1  UNL1        0.1488
     14 C         142.7395  140.8129  163.8663 C.3     1  UNL1        0.0806
     15 C         141.7644  139.7759  163.3932 C.ar    1  UNL1       -0.0157
     16 C         140.5342  140.1905  162.6419 C.ar    1  UNL1       -0.0039
     17 C         139.5591  139.1535  162.1687 C.ar    1  UNL1       -0.0003
     18 C         139.8142  137.7018  162.4470 C.ar    1  UNL1       -0.0000
     19 C         141.0445  137.2871  163.1983 C.ar    1  UNL1       -0.0003
     20 C         142.0196  138.3241  163.6715 C.ar    1  UNL1       -0.0039
     21 C         144.3106  143.4397  162.0529 C.3     1  UNL1        0.0786
     22 C         144.7448  142.3389  162.9746 C.2     1  UNL1        0.1887
     23 O         146.1092  141.7330  162.8288 O.2     1  UNL1       -0.2900
     24 C         143.2184  140.7841  162.4451 C.3     1  UNL1        0.0130
     25 C         143.8334  139.5354  161.8860 C.3     1  UNL1        0.0181
     26 C         144.2347  139.4787  160.4419 C.3     1  UNL1        0.0722
     27 N         143.3859  138.7316  159.4563 N.3     1  UNL1       -0.2703
     28 C         142.7826  137.4115  159.8350 C.3     1  UNL1        0.0897
     29 C         143.1404  139.3046  158.0919 C.3     1  UNL1        0.0897
@<TRIPOS>BOND
     1    21    22    1
     2    22    23    2
     3    22     1    1
     4     1     2    2
     5     2     3    1
     6     3     4    1
     7     4     5   ar
     8     5     6   ar
     9     6     7    1
    10     6     8   ar
    11     8     9   ar
    12     9    10   ar
    13    10    11    1
    14    11    12    1
    15    13    12    1
    16    13    14    1
    17    14    24    1
    18    24    25    1
    19    25    26    1
    20    26    27    1
    21    27    28    1
    22    27    29    1
    23    14    15    1
    24    15    16   ar
    25    16    17   ar
    26    17    18   ar
    27    18    19   ar
    28    19    20   ar
    29    14     1    1
    30    20    15   ar
    31    13     3    1
    32    10     4   ar
@<TRIPOS>MOLECULE
*****
 29 32 0 0 0
SMALL
GASTEIGER

@<TRIPOS>ATOM
      1 C         143.5325  141.0207  163.6935 C.2     1  UNL1        0.1157
      2 N         143.5436  140.3323  165.0262 N.2     1  UNL1       -0.1790
      3 N         142.4273  140.9011  165.8510 N.pl3   1  UNL1       -0.2061
      4 C         141.9586  140.6064  167.2452 C.ar    1  UNL1        0.1026
      5 C         142.6596  139.5666  168.0680 C.ar    1  UNL1        0.0151
      6 C         142.1909  139.2719  169.4621 C.ar    1  UNL1       -0.0204
      7 C         142.8920  138.2320  170.2851 C.3     1  UNL1        0.0311
      8 C         141.0211  140.0172  170.0333 C.ar    1  UNL1       -0.0011
      9 C         140.3201  141.0570  169.2104 C.ar    1  UNL1        0.0379
     10 C         140.7888  141.3517  167.8163 C.ar    1  UNL1        0.1535
     11 O         140.0877  142.3916  166.9934 O.3     1  UNL1       -0.4723
     12 C         140.5564  142.6862  165.5993 C.3     1  UNL1        0.2277
     13 C         141.7262  141.9409  165.0281 C.3     1  UNL1        0.1488
     14 C         142.4093  142.0149  163.6947 C.3     1  UNL1        0.0806
     15 C         141.3841  143.0706  163.4045 C.ar    1  UNL1       -0.0157
     16 C         141.7614  144.5209  163.4710 C.ar    1  UNL1       -0.0039
     17 C         140.7362  145.5767  163.1807 C.ar    1  UNL1       -0.0003
     18 C         139.3337  145.1823  162.8239 C.ar    1  UNL1       -0.0000
     19 C         138.9563  143.7321  162.7573 C.ar    1  UNL1       -0.0003
     20 C         139.9815  142.6762  163.0476 C.ar    1  UNL1       -0.0039
     21 C         144.2714  139.5723  161.6672 C.3     1  UNL1        0.0786
     22 C         144.4785  140.7605  162.5589 C.2     1  UNL1        0.1887
     23 O         145.6316  141.6886  162.3160 O.2     1  UNL1       -0.2900
     24 C         142.8780  142.3095  162.3006 C.3     1  UNL1        0.0130
     25 C         141.9755  142.0398  161.1332 C.3     1  UNL1        0.0181
     26 C         142.0823  142.8775  159.8935 C.3     1  UNL1        0.0722
     27 N         140.9624  143.8000  159.5129 N.3     1  UNL1       -0.2703
     28 C         139.6245  143.2384  159.1324 C.3     1  UNL1        0.0897
     29 C         141.1804  145.2841  159.5127 C.3     1  UNL1        0.0897
@<TRIPOS>BOND
     1    21    22    1
     2    22    23    2
     3    22     1    1
     4     1     2    2
     5     2     3    1
     6     3     4    1
     7     4     5   ar
     8     5     6   ar
     9     6     7    1
    10     6     8   ar
    11     8     9   ar
    12     9    10   ar
    13    10    11    1
    14    11    12    1
    15    13    12    1
    16    13    14    1
    17    14    24    1
    18    24    25    1
    19    25    26    1
    20    26    27    1
    21    27    28    1
    22    27    29    1
    23    14    15    1
    24    15    16   ar
    25    16    17   ar
    26    17    18   ar
    27    18    19   ar
    28    19    20   ar
    29    14     1    1
    30    20    15   ar
    31    13     3    1
    32    10     4   ar
@<TRIPOS>MOLECULE
*****
 29 32 0 0 0
SMALL
GASTEIGER

@<TRIPOS>ATOM
      1 C         139.0965  141.7713  163.9447 C.2     1  UNL1        0.1157
      2 N         139.0980  141.4925  165.4185 N.2     1  UNL1       -0.1790
      3 N         140.3915  140.8144  165.7607 N.pl3   1  UNL1       -0.2061
      4 C         140.9457  140.3065  167.0587 C.ar    1  UNL1        0.1026
      5 C         140.1478  140.4467  168.3210 C.ar    1  UNL1        0.0151
      6 C         140.7021  139.9389  169.6190 C.ar    1  UNL1       -0.0204
      7 C         139.9041  140.0791  170.8814 C.3     1  UNL1        0.0311
      8 C         142.0544  139.2907  169.6546 C.ar    1  UNL1       -0.0011
      9 C         142.8523  139.1505  168.3923 C.ar    1  UNL1        0.0379
     10 C         142.2980  139.6584  167.0943 C.ar    1  UNL1        0.1535
     11 O         143.0960  139.5181  165.8319 O.3     1  UNL1       -0.4723
     12 C         142.5417  140.0260  164.5340 C.3     1  UNL1        0.2277
     13 C         141.1894  140.6742  164.4983 C.3     1  UNL1        0.1488
     14 C         140.3891  141.2656  163.3760 C.3     1  UNL1        0.0806
     15 C         141.5658  140.8660  162.5359 C.ar    1  UNL1       -0.0157
     16 C         141.5112  139.6100  161.7178 C.ar    1  UNL1       -0.0039
     17 C         142.6880  139.2103  160.8776 C.ar    1  UNL1       -0.0003
     18 C         143.9192  140.0668  160.8557 C.ar    1  UNL1       -0.0000
     19 C         143.9738  141.3229  161.6738 C.ar    1  UNL1       -0.0003
     20 C         142.7971  141.7225  162.5139 C.ar    1  UNL1       -0.0039
     21 C         137.7336  143.9042  163.3585 C.3     1  UNL1        0.0786
     22 C         137.9957  142.4388  163.1747 C.2     1  UNL1        0.1887
     23 O         137.1570  141.6407  162.2209 O.2     1  UNL1       -0.2900
     24 C         139.8348  141.7735  162.0779 C.3     1  UNL1        0.0130
     25 C         140.5244  142.8919  161.3544 C.3     1  UNL1        0.0181
     26 C         139.8405  143.5788  160.2096 C.3     1  UNL1        0.0722
     27 N         139.9980  145.0585  160.0206 N.3     1  UNL1       -0.2703
     28 C         139.9493  145.9755  161.2066 C.3     1  UNL1        0.0897
     29 C         140.2043  145.6211  158.6455 C.3     1  UNL1        0.0897
@<TRIPOS>BOND
     1    21    22    1
     2    22    23    2
     3    22     1    1
     4     1     2    2
     5     2     3    1
     6     3     4    1
     7     4     5   ar
     8     5     6   ar
     9     6     7    1
    10     6     8   ar
    11     8     9   ar
    12     9    10   ar
    13    10    11    1
    14    11    12    1
    15    13    12    1
    16    13    14    1
    17    14    24    1
    18    24    25    1
    19    25    26    1
    20    26    27    1
    21    27    28    1
    22    27    29    1
    23    14    15    1
    24    15    16   ar
    25    16    17   ar
    26    17    18   ar
    27    18    19   ar
    28    19    20   ar
    29    14     1    1
    30    20    15   ar
    31    13     3    1
    32    10     4   ar
@<TRIPOS>MOLECULE
*****
 29 32 0 0 0
SMALL
GASTEIGER

@<TRIPOS>ATOM
      1 C         141.6040  143.2587  163.3022 C.2     1  UNL1        0.1157
      2 N         142.1605  143.3035  164.6945 N.2     1  UNL1       -0.1790
      3 N         141.9009  141.9748  165.3403 N.pl3   1  UNL1       -0.2061
      4 C         142.2247  141.4416  166.7045 C.ar    1  UNL1        0.1026
      5 C         142.9415  142.3076  167.6975 C.ar    1  UNL1        0.0151
      6 C         143.2653  141.7744  169.0616 C.ar    1  UNL1       -0.0204
      7 C         143.9821  142.6404  170.0548 C.3     1  UNL1        0.0311
      8 C         142.8722  140.3751  169.4327 C.ar    1  UNL1       -0.0011
      9 C         142.1554  139.5091  168.4396 C.ar    1  UNL1        0.0379
     10 C         141.8316  140.0424  167.0756 C.ar    1  UNL1        0.1535
     11 O         141.1148  139.1764  166.0824 O.3     1  UNL1       -0.4723
     12 C         140.7910  139.7096  164.7183 C.3     1  UNL1        0.2277
     13 C         141.1841  141.1088  164.3473 C.3     1  UNL1        0.1488
     14 C         141.0006  141.9023  163.0877 C.3     1  UNL1        0.0806
     15 C         140.3295  140.6574  162.5879 C.ar    1  UNL1       -0.0157
     16 C         141.0798  139.7030  161.7069 C.ar    1  UNL1       -0.0039
     17 C         140.4086  138.4580  161.2071 C.ar    1  UNL1       -0.0003
     18 C         138.9872  138.1675  161.5883 C.ar    1  UNL1       -0.0000
     19 C         138.2369  139.1220  162.4692 C.ar    1  UNL1       -0.0003
     20 C         138.9081  140.3670  162.9690 C.ar    1  UNL1       -0.0039
     21 C         140.7002  145.5330  162.4301 C.3     1  UNL1        0.0786
     22 C         141.6440  144.3745  162.3004 C.2     1  UNL1        0.1887
     23 O         142.6279  144.3316  161.1690 O.2     1  UNL1       -0.2900
     24 C         140.6768  142.4355  161.7235 C.3     1  UNL1        0.0130
     25 C         139.2465  142.6050  161.3045 C.3     1  UNL1        0.0181
     26 C         138.8915  142.6447  159.8477 C.3     1  UNL1        0.0722
     27 N         139.0480  141.4144  159.0038 N.3     1  UNL1       -0.2703
     28 C         137.9286  140.4201  158.9127 C.3     1  UNL1        0.0897
     29 C         140.3238  141.1786  158.2511 C.3     1  UNL1        0.0897
@<TRIPOS>BOND
     1    21    22    1
     2    22    23    2
     3    22     1    1
     4     1     2    2
     5     2     3    1
     6     3     4    1
     7     4     5   ar
     8     5     6   ar
     9     6     7    1
    10     6     8   ar
    11     8     9   ar
    12     9    10   ar
    13    10    11    1
    14    11    12    1
    15    13    12    1
    16    13    14    1
    17    14    24    1
    18    24    25    1
    19    25    26    1
    20    26    27    1
    21    27    28    1
    22    27    29    1
    23    14    15    1
    24    15    16   ar
    25    16    17   ar
    26    17    18   ar
    27    18    19   ar
    28    19    20   ar
    29    14     1    1
    30    20    15   ar
    31    13     3    1
    32    10     4   ar
@<TRIPOS>MOLECULE
*****
 29 32 0 0 0
SMALL
GASTEIGER

@<TRIPOS>ATOM
      1 C         139.2314  141.1254  164.3363 C.2     1  UNL1        0.1157
      2 N         139.2188  140.6949  165.7732 N.2     1  UNL1       -0.1790
      3 N         140.4867  141.1777  166.4128 N.pl3   1  UNL1       -0.2061
      4 C         141.0191  141.0477  167.8092 C.ar    1  UNL1        0.1026
      5 C         140.2229  140.3189  168.8506 C.ar    1  UNL1        0.0151
      6 C         140.7553  140.1889  170.2469 C.ar    1  UNL1       -0.0204
      7 C         139.9590  139.4600  171.2884 C.3     1  UNL1        0.0311
      8 C         142.0840  140.7879  170.6017 C.ar    1  UNL1       -0.0011
      9 C         142.8802  141.5168  169.5602 C.ar    1  UNL1        0.0379
     10 C         142.3478  141.6467  168.1640 C.ar    1  UNL1        0.1535
     11 O         143.1440  142.3756  167.1224 O.3     1  UNL1       -0.4723
     12 C         142.6116  142.5055  165.7261 C.3     1  UNL1        0.2277
     13 C         141.2830  141.9065  165.3713 C.3     1  UNL1        0.1488
     14 C         140.5071  141.8742  164.0880 C.3     1  UNL1        0.0806
     15 C         141.6715  142.6502  163.5477 C.ar    1  UNL1       -0.0157
     16 C         142.7111  141.9603  162.7151 C.ar    1  UNL1       -0.0039
     17 C         143.8756  142.7363  162.1748 C.ar    1  UNL1       -0.0003
     18 C         144.0005  144.2023  162.4671 C.ar    1  UNL1       -0.0000
     19 C         142.9609  144.8922  163.2997 C.ar    1  UNL1       -0.0003
     20 C         141.7964  144.1162  163.8401 C.ar    1  UNL1       -0.0039
     21 C         138.2544  139.6549  162.4302 C.3     1  UNL1        0.0786
     22 C         138.1568  140.8545  163.3253 C.2     1  UNL1        0.1887
     23 O         136.9847  141.7834  163.2095 O.2     1  UNL1       -0.2900
     24 C         139.9747  142.0042  162.6916 C.3     1  UNL1        0.0130
     25 C         139.4892  143.3336  162.1948 C.3     1  UNL1        0.0181
     26 C         139.7069  143.7241  160.7630 C.3     1  UNL1        0.0722
     27 N         139.9350  145.1627  160.4043 N.3     1  UNL1       -0.2703
     28 C         140.3228  145.5340  159.0038 C.3     1  UNL1        0.0897
     29 C         139.7754  146.2298  161.4463 C.3     1  UNL1        0.0897
@<TRIPOS>BOND
     1    21    22    1
     2    22    23    2
     3    22     1    1
     4     1     2    2
     5     2     3    1
     6     3     4    1
     7     4     5   ar
     8     5     6   ar
     9     6     7    1
    10     6     8   ar
    11     8     9   ar
    12     9    10   ar
    13    10    11    1
    14    11    12    1
    15    13    12    1
    16    13    14    1
    17    14    24    1
    18    24    25    1
    19    25    26    1
    20    26    27    1
    21    27    28    1
    22    27    29    1
    23    14    15    1
    24    15    16   ar
    25    16    17   ar
    26    17    18   ar
    27    18    19   ar
    28    19    20   ar
    29    14     1    1
    30    20    15   ar
    31    13     3    1
    32    10     4   ar
@<TRIPOS>MOLECULE
*****
 29 32 0 0 0
SMALL
GASTEIGER

@<TRIPOS>ATOM
      1 C         139.4213  142.9624  163.8142 C.2     1  UNL1        0.1157
      2 N         139.3321  142.9281  165.3111 N.2     1  UNL1       -0.1790
      3 N         140.7141  142.7126  165.8529 N.pl3   1  UNL1       -0.2061
      4 C         141.2354  142.5936  167.2544 C.ar    1  UNL1        0.1026
      5 C         140.2921  142.6926  168.4165 C.ar    1  UNL1        0.0151
      6 C         140.8135  142.5736  169.8179 C.ar    1  UNL1       -0.0204
      7 C         139.8702  142.6726  170.9800 C.3     1  UNL1        0.0311
      8 C         142.2781  142.3557  170.0572 C.ar    1  UNL1       -0.0011
      9 C         143.2214  142.2567  168.8952 C.ar    1  UNL1        0.0379
     10 C         142.7001  142.3757  167.4938 C.ar    1  UNL1        0.1535
     11 O         143.6434  142.2767  166.3317 O.3     1  UNL1       -0.4723
     12 C         143.1220  142.3957  164.9303 C.3     1  UNL1        0.2277
     13 C         141.6574  142.6136  164.6909 C.3     1  UNL1        0.1488
     14 C         140.8584  142.7680  163.4309 C.3     1  UNL1        0.0806
     15 C         142.1865  142.5985  162.7545 C.ar    1  UNL1       -0.0157
     16 C         142.5523  141.2800  162.1401 C.ar    1  UNL1       -0.0039
     17 C         143.8805  141.1104  161.4638 C.ar    1  UNL1       -0.0003
     18 C         144.8427  142.2594  161.4019 C.ar    1  UNL1       -0.0000
     19 C         144.4769  143.5780  162.0163 C.ar    1  UNL1       -0.0003
     20 C         143.1487  143.7476  162.6926 C.ar    1  UNL1       -0.0039
     21 C         137.6303  141.9694  162.2153 C.3     1  UNL1        0.0786
     22 C         138.2746  143.1569  162.8668 C.2     1  UNL1        0.1887
     23 O         137.7723  144.5390  162.5711 O.2     1  UNL1       -0.2900
     24 C         140.3370  142.8870  162.0294 C.3     1  UNL1        0.0130
     25 C         140.7103  144.0716  161.1883 C.3     1  UNL1        0.0181
     26 C         140.3988  144.0776  159.7211 C.3     1  UNL1        0.0722
     27 N         141.4544  144.4741  158.7318 N.3     1  UNL1       -0.2703
     28 C         142.7295  143.6893  158.6407 C.3     1  UNL1        0.0897
     29 C         141.2349  145.6553  157.8337 C.3     1  UNL1        0.0897
@<TRIPOS>BOND
     1    21    22    1
     2    22    23    2
     3    22     1    1
     4     1     2    2
     5     2     3    1
     6     3     4    1
     7     4     5   ar
     8     5     6   ar
     9     6     7    1
    10     6     8   ar
    11     8     9   ar
    12     9    10   ar
    13    10    11    1
    14    11    12    1
    15    13    12    1
    16    13    14    1
    17    14    24    1
    18    24    25    1
    19    25    26    1
    20    26    27    1
    21    27    28    1
    22    27    29    1
    23    14    15    1
    24    15    16   ar
    25    16    17   ar
    26    17    18   ar
    27    18    19   ar
    28    19    20   ar
    29    14     1    1
    30    20    15   ar
    31    13     3    1
    32    10     4   ar
