@<TRIPOS>MOLECULE
*****
 34 36 0 0 0
SMALL
GASTEIGER

@<TRIPOS>ATOM
      1 C         138.4154  138.3989  161.2801 C.3     1  UNL1        0.1034
      2 C         138.6615  139.1009  165.7181 C.3     1  UNL1        0.1687
      3 C         139.1077  137.7906  165.1402 C.3     1  UNL1        0.0609
      4 C         139.0257  137.5566  163.6608 C.3     1  UNL1        0.0759
      5 N         138.4974  138.6329  162.7594 N.3     1  UNL1       -0.2704
      6 C         138.0512  139.9432  163.3373 C.3     1  UNL1        0.0759
      7 C         138.1332  140.1772  164.8167 C.3     1  UNL1        0.0609
      8 O         138.7435  139.3349  167.1975 O.3     1  UNL1       -0.4782
      9 C         141.0687  141.7331  171.1777 C.3     1  UNL1        0.0329
     10 C         141.1134  141.2026  169.7754 C.ar    1  UNL1        0.0023
     11 C         142.3654  141.3407  168.9608 C.ar    1  UNL1        0.0547
     12 CL        143.5727  142.0093  169.5486 Cl      1  UNL1       -0.0825
     13 C         142.4100  140.8102  167.5585 C.ar    1  UNL1        0.0142
     14 C         141.2028  140.1416  166.9707 C.ar    1  UNL1        0.0386
     15 C         139.9509  140.0035  167.7853 C.ar    1  UNL1        0.1485
     16 C         139.9062  140.5340  169.1876 C.ar    1  UNL1        0.0884
     17 CL        138.6542  140.3959  170.0022 Cl      1  UNL1       -0.0794
     18 C         139.5186  138.8763  160.3829 C.3     1  UNL1        0.1459
     19 O         139.6953  138.2687  159.0229 O.3     1  UNL1       -0.3813
     20 H         140.4479  138.6877  158.5769 H       1  UNL1        0.2105
     21 C         140.4452  139.9613  160.8458 C.3     1  UNL1        0.1204
     22 N         140.0678  141.4008  160.6575 N.am    1  UNL1       -0.2987
     23 C         140.3118  142.3902  161.7581 C.2     1  UNL1        0.2457
     24 O         140.9332  141.9402  163.0470 O.2     1  UNL1       -0.2704
     25 H         139.6599  141.6962  159.8116 H       1  UNL1        0.1498
     26 C         139.9343  143.8297  161.5699 C.2     1  UNL1        0.0842
     27 C         140.4350  144.7381  160.4863 C.2     1  UNL1        0.1242
     28 N         139.8000  146.0834  160.6789 N.2     1  UNL1       -0.1507
     29 N         138.9069  146.0064  161.8816 N.2     1  UNL1       -0.1629
     30 C         138.9899  144.6136  162.4322 C.3     1  UNL1        0.2474
     31 C         138.2570  144.0956  163.6342 C.3     1  UNL1        0.4237
     32 F         137.5243  143.5777  164.8362 F       1  UNL1       -0.1675
     33 F         137.3460  143.3085  162.7396 F       1  UNL1       -0.1675
     34 F         139.1681  144.8828  164.5288 F       1  UNL1       -0.1675
@<TRIPOS>BOND
     1     9    10    1
     2    10    11   ar
     3    11    12    1
     4    11    13   ar
     5    13    14   ar
     6    14    15   ar
     7    15     8    1
     8     8     2    1
     9     2     3    1
    10     3     4    1
    11     4     5    1
    12     5     1    1
    13     1    18    1
    14    18    19    1
    15    18    21    1
    16    21    22    1
    17    22    23   am
    18    23    24    2
    19    23    26    1
    20    26    27    2
    21    27    28    1
    22    28    29    2
    23    29    30    1
    24    30    31    1
    25    31    32    1
    26    31    33    1
    27    31    34    1
    28     5     6    1
    29     6     7    1
    30    15    16   ar
    31    16    17    1
    32    16    10   ar
    33     7     2    1
    34    30    26    1
    35    19    20    1
    36    22    25    1
@<TRIPOS>MOLECULE
*****
 34 36 0 0 0
SMALL
GASTEIGER

@<TRIPOS>ATOM
      1 C         138.4450  138.3858  161.2213 C.3     1  UNL1        0.1034
      2 C         138.6649  139.0825  165.6615 C.3     1  UNL1        0.1687
      3 C         138.1747  140.1722  164.7547 C.3     1  UNL1        0.0609
      4 C         138.1014  139.9399  163.2746 C.3     1  UNL1        0.0759
      5 N         138.5183  138.6180  162.7013 N.3     1  UNL1       -0.2704
      6 C         139.0084  137.5283  163.6081 C.3     1  UNL1        0.0759
      7 C         139.0817  137.7605  165.0882 C.3     1  UNL1        0.0609
      8 O         138.7382  139.3147  167.1416 O.3     1  UNL1       -0.4782
      9 C         140.9886  141.7629  171.1344 C.3     1  UNL1        0.0329
     10 C         141.0492  141.2420  169.7291 C.ar    1  UNL1        0.0023
     11 C         142.2957  141.4242  168.9148 C.ar    1  UNL1        0.0547
     12 CL        143.4816  142.1273  169.5059 Cl      1  UNL1       -0.0825
     13 C         142.3564  140.9032  167.5095 C.ar    1  UNL1        0.0142
     14 C         141.1705  140.2001  166.9184 C.ar    1  UNL1        0.0386
     15 C         139.9241  140.0179  167.7327 C.ar    1  UNL1        0.1485
     16 C         139.8634  140.5388  169.1380 C.ar    1  UNL1        0.0884
     17 CL        138.6169  140.3566  169.9523 Cl      1  UNL1       -0.0794
     18 C         139.6838  138.4952  160.3826 C.3     1  UNL1        0.1459
     19 O         139.6116  138.2571  158.9035 O.3     1  UNL1       -0.3813
     20 H         140.4936  138.3666  158.5149 H       1  UNL1        0.2105
     21 C         140.9949  138.8428  161.0233 C.3     1  UNL1        0.1204
     22 N         141.1908  140.1934  161.6457 N.am    1  UNL1       -0.2987
     23 C         141.7736  140.3071  163.0231 C.2     1  UNL1        0.2457
     24 O         142.1605  139.0701  163.7781 O.2     1  UNL1       -0.2704
     25 H         140.9368  141.0053  161.1501 H       1  UNL1        0.1498
     26 C         141.9695  141.6577  163.6455 C.2     1  UNL1        0.0842
     27 C         140.8827  142.6184  164.0277 C.2     1  UNL1        0.1242
     28 N         141.5281  143.8392  164.6135 N.2     1  UNL1       -0.1507
     29 N         143.0137  143.6331  164.5933 N.2     1  UNL1       -0.1629
     30 C         143.2865  142.2848  163.9951 C.3     1  UNL1        0.2474
     31 C         144.6389  141.6714  163.7835 C.3     1  UNL1        0.4237
     32 F         145.9913  141.0579  163.5721 F       1  UNL1       -0.1675
     33 F         144.8296  142.5145  162.5578 F       1  UNL1       -0.1675
     34 F         144.4482  140.8283  165.0094 F       1  UNL1       -0.1675
@<TRIPOS>BOND
     1     9    10    1
     2    10    11   ar
     3    11    12    1
     4    11    13   ar
     5    13    14   ar
     6    14    15   ar
     7    15     8    1
     8     8     2    1
     9     2     3    1
    10     3     4    1
    11     4     5    1
    12     5     1    1
    13     1    18    1
    14    18    19    1
    15    18    21    1
    16    21    22    1
    17    22    23   am
    18    23    24    2
    19    23    26    1
    20    26    27    2
    21    27    28    1
    22    28    29    2
    23    29    30    1
    24    30    31    1
    25    31    32    1
    26    31    33    1
    27    31    34    1
    28     5     6    1
    29     6     7    1
    30    15    16   ar
    31    16    17    1
    32    16    10   ar
    33     7     2    1
    34    30    26    1
    35    19    20    1
    36    22    25    1
@<TRIPOS>MOLECULE
*****
 34 36 0 0 0
SMALL
GASTEIGER

@<TRIPOS>ATOM
      1 C         143.0318  137.9704  161.0638 C.3     1  UNL1        0.1034
      2 C         143.0684  138.6262  165.5156 C.3     1  UNL1        0.1687
      3 C         141.9065  137.9316  164.8694 C.3     1  UNL1        0.0609
      4 C         141.8943  137.7131  163.3854 C.3     1  UNL1        0.0759
      5 N         143.0440  138.1890  162.5477 N.3     1  UNL1       -0.2704
      6 C         144.2059  138.8835  163.1940 C.3     1  UNL1        0.0759
      7 C         144.2181  139.1021  164.6779 C.3     1  UNL1        0.0609
      8 O         143.0806  138.8448  166.9995 O.3     1  UNL1       -0.4782
      9 C         141.0947  141.3033  171.1241 C.3     1  UNL1        0.0329
     10 C         141.3772  141.2562  169.6517 C.ar    1  UNL1        0.0023
     11 C         140.9494  142.3911  168.7692 C.ar    1  UNL1        0.0547
     12 CL        140.2390  143.5733  169.3590 Cl      1  UNL1       -0.0825
     13 C         141.2319  142.3439  167.2968 C.ar    1  UNL1        0.0142
     14 C         141.9423  141.1618  166.7069 C.ar    1  UNL1        0.0386
     15 C         142.3702  140.0269  167.5894 C.ar    1  UNL1        0.1485
     16 C         142.0876  140.0741  169.0618 C.ar    1  UNL1        0.0884
     17 CL        142.5155  138.9391  169.9443 Cl      1  UNL1       -0.0794
     18 C         142.9160  139.1418  160.1341 C.3     1  UNL1        0.1459
     19 O         143.7969  139.2281  158.9231 O.3     1  UNL1       -0.3813
     20 H         143.5952  140.0410  158.4338 H       1  UNL1        0.2105
     21 C         141.9193  140.2270  160.4154 C.3     1  UNL1        0.1204
     22 N         142.3760  141.5327  160.9957 N.am    1  UNL1       -0.2987
     23 C         141.9765  141.9143  162.3902 C.2     1  UNL1        0.2457
     24 O         141.1204  140.9903  163.2045 O.2     1  UNL1       -0.2704
     25 H         142.9379  142.1392  160.4612 H       1  UNL1        0.1498
     26 C         142.4332  143.2200  162.9704 C.2     1  UNL1        0.0842
     27 C         141.5878  144.4446  163.1595 C.2     1  UNL1        0.1242
     28 N         142.4476  145.5118  163.7694 N.2     1  UNL1       -0.1507
     29 N         143.8243  144.9467  163.9572 N.2     1  UNL1       -0.1629
     30 C         143.8154  143.5304  163.4635 C.3     1  UNL1        0.2474
     31 C         144.9837  142.5895  163.4629 C.3     1  UNL1        0.4237
     32 F         146.1520  141.6487  163.4622 F       1  UNL1       -0.1675
     33 F         144.7499  142.2983  164.9155 F       1  UNL1       -0.1675
     34 F         145.2175  142.8808  162.0101 F       1  UNL1       -0.1675
@<TRIPOS>BOND
     1     9    10    1
     2    10    11   ar
     3    11    12    1
     4    11    13   ar
     5    13    14   ar
     6    14    15   ar
     7    15     8    1
     8     8     2    1
     9     2     3    1
    10     3     4    1
    11     4     5    1
    12     5     1    1
    13     1    18    1
    14    18    19    1
    15    18    21    1
    16    21    22    1
    17    22    23   am
    18    23    24    2
    19    23    26    1
    20    26    27    2
    21    27    28    1
    22    28    29    2
    23    29    30    1
    24    30    31    1
    25    31    32    1
    26    31    33    1
    27    31    34    1
    28     5     6    1
    29     6     7    1
    30    15    16   ar
    31    16    17    1
    32    16    10   ar
    33     7     2    1
    34    30    26    1
    35    19    20    1
    36    22    25    1
@<TRIPOS>MOLECULE
*****
 34 36 0 0 0
SMALL
GASTEIGER

@<TRIPOS>ATOM
      1 C         141.1329  144.0119  157.5098 C.3     1  UNL1        0.1034
      2 C         141.3980  139.8978  159.3137 C.3     1  UNL1        0.1687
      3 C         140.2811  140.2324  158.3699 C.3     1  UNL1        0.0609
      4 C         140.1928  141.6038  157.7686 C.3     1  UNL1        0.0759
      5 N         141.2213  142.6406  158.1111 N.3     1  UNL1       -0.2704
      6 C         142.3381  142.3060  159.0549 C.3     1  UNL1        0.0759
      7 C         142.4265  140.9347  159.6562 C.3     1  UNL1        0.0609
      8 O         141.4863  138.5265  159.9150 O.3     1  UNL1       -0.4782
      9 C         141.8953  137.8304  165.0481 C.3     1  UNL1        0.0329
     10 C         141.0518  137.8992  163.8096 C.ar    1  UNL1        0.0023
     11 C         139.5694  137.6888  163.8991 C.ar    1  UNL1        0.0547
     12 CL        138.9303  137.4095  165.2272 Cl      1  UNL1       -0.0825
     13 C         138.7259  137.7576  162.6606 C.ar    1  UNL1        0.0142
     14 C         139.3649  138.0368  161.3326 C.ar    1  UNL1        0.0386
     15 C         140.8473  138.2472  161.2431 C.ar    1  UNL1        0.1485
     16 C         141.6908  138.1784  162.4816 C.ar    1  UNL1        0.0884
     17 CL        143.1733  138.3889  162.3920 Cl      1  UNL1       -0.0794
     18 C         141.4581  145.2176  158.3408 C.3     1  UNL1        0.1459
     19 O         142.5660  146.1390  157.9242 O.3     1  UNL1       -0.3813
     20 H         142.6438  146.8620  158.5660 H       1  UNL1        0.2105
     21 C         140.6754  145.5019  159.5885 C.3     1  UNL1        0.1204
     22 N         139.6118  144.5458  160.0408 N.am    1  UNL1       -0.2987
     23 C         139.8297  143.7054  161.2639 C.2     1  UNL1        0.2457
     24 O         141.1112  143.8210  162.0348 O.2     1  UNL1       -0.2704
     25 H         138.7707  144.4699  159.5348 H       1  UNL1        0.1498
     26 C         138.7661  142.7493  161.7162 C.2     1  UNL1        0.0842
     27 C         138.3163  141.5199  160.9839 C.2     1  UNL1        0.1242
     28 N         137.2377  140.8655  161.7953 N.2     1  UNL1       -0.1507
     29 N         137.0208  141.6904  163.0292 N.2     1  UNL1       -0.1629
     30 C         137.9654  142.8547  162.9803 C.3     1  UNL1        0.2474
     31 C         138.0878  143.9347  164.0140 C.3     1  UNL1        0.4237
     32 F         138.2102  145.0147  165.0478 F       1  UNL1       -0.1675
     33 F         137.4009  144.8965  163.0905 F       1  UNL1       -0.1675
     34 F         138.7747  142.9729  164.9376 F       1  UNL1       -0.1675
@<TRIPOS>BOND
     1     9    10    1
     2    10    11   ar
     3    11    12    1
     4    11    13   ar
     5    13    14   ar
     6    14    15   ar
     7    15     8    1
     8     8     2    1
     9     2     3    1
    10     3     4    1
    11     4     5    1
    12     5     1    1
    13     1    18    1
    14    18    19    1
    15    18    21    1
    16    21    22    1
    17    22    23   am
    18    23    24    2
    19    23    26    1
    20    26    27    2
    21    27    28    1
    22    28    29    2
    23    29    30    1
    24    30    31    1
    25    31    32    1
    26    31    33    1
    27    31    34    1
    28     5     6    1
    29     6     7    1
    30    15    16   ar
    31    16    17    1
    32    16    10   ar
    33     7     2    1
    34    30    26    1
    35    19    20    1
    36    22    25    1
@<TRIPOS>MOLECULE
*****
 34 36 0 0 0
SMALL
GASTEIGER

@<TRIPOS>ATOM
      1 C         139.1364  139.6592  158.4741 C.3     1  UNL1        0.1034
      2 C         139.8109  137.9126  162.5661 C.3     1  UNL1        0.1687
      3 C         140.9766  138.1627  161.6559 C.3     1  UNL1        0.0609
      4 C         140.7518  138.7450  160.2918 C.3     1  UNL1        0.0759
      5 N         139.3612  139.0770  159.8381 N.3     1  UNL1       -0.2704
      6 C         138.1954  138.8269  160.7482 C.3     1  UNL1        0.0759
      7 C         138.4202  138.2447  162.1122 C.3     1  UNL1        0.0609
      8 O         140.0357  137.3304  163.9300 O.3     1  UNL1       -0.4782
      9 C         142.3487  140.4161  167.4127 C.3     1  UNL1        0.0329
     10 C         141.1119  139.7519  166.8844 C.ar    1  UNL1        0.0023
     11 C         139.7947  139.9663  167.5692 C.ar    1  UNL1        0.0547
     12 CL        139.7143  140.8450  168.7823 Cl      1  UNL1       -0.0825
     13 C         138.5578  139.3022  167.0410 C.ar    1  UNL1        0.0142
     14 C         138.6381  138.4235  165.8279 C.ar    1  UNL1        0.0386
     15 C         139.9553  138.2091  165.1431 C.ar    1  UNL1        0.1485
     16 C         141.1922  138.8733  165.6714 C.ar    1  UNL1        0.0884
     17 CL        142.5094  138.6588  164.9865 Cl      1  UNL1       -0.0794
     18 C         138.1880  140.8076  158.2958 C.3     1  UNL1        0.1459
     19 O         136.9673  140.6462  157.4392 O.3     1  UNL1       -0.3813
     20 H         136.4662  141.4767  157.4305 H       1  UNL1        0.2105
     21 C         138.4604  142.1175  158.9741 C.3     1  UNL1        0.1204
     22 N         139.4656  142.1921  160.0850 N.am    1  UNL1       -0.2987
     23 C         139.0069  142.1862  161.5131 C.2     1  UNL1        0.2457
     24 O         137.5431  142.1057  161.8304 O.2     1  UNL1       -0.2704
     25 H         140.4263  142.2448  159.8767 H       1  UNL1        0.1498
     26 C         140.0121  142.2607  162.6240 C.2     1  UNL1        0.0842
     27 C         141.4069  141.7100  162.5894 C.2     1  UNL1        0.1242
     28 N         142.0559  142.0080  163.9085 N.2     1  UNL1       -0.1507
     29 N         141.0621  142.7429  164.7584 N.2     1  UNL1       -0.1629
     30 C         139.7990  142.8991  163.9645 C.3     1  UNL1        0.2474
     31 C         138.5433  143.5749  164.4296 C.3     1  UNL1        0.4237
     32 F         137.2875  144.2509  164.8946 F       1  UNL1       -0.1675
     33 F         138.0906  142.2951  165.0673 F       1  UNL1       -0.1675
     34 F         138.9960  144.8549  163.7918 F       1  UNL1       -0.1675
@<TRIPOS>BOND
     1     9    10    1
     2    10    11   ar
     3    11    12    1
     4    11    13   ar
     5    13    14   ar
     6    14    15   ar
     7    15     8    1
     8     8     2    1
     9     2     3    1
    10     3     4    1
    11     4     5    1
    12     5     1    1
    13     1    18    1
    14    18    19    1
    15    18    21    1
    16    21    22    1
    17    22    23   am
    18    23    24    2
    19    23    26    1
    20    26    27    2
    21    27    28    1
    22    28    29    2
    23    29    30    1
    24    30    31    1
    25    31    32    1
    26    31    33    1
    27    31    34    1
    28     5     6    1
    29     6     7    1
    30    15    16   ar
    31    16    17    1
    32    16    10   ar
    33     7     2    1
    34    30    26    1
    35    19    20    1
    36    22    25    1
@<TRIPOS>MOLECULE
*****
 34 36 0 0 0
SMALL
GASTEIGER

@<TRIPOS>ATOM
      1 C         144.1714  142.0070  159.5672 C.3     1  UNL1        0.1034
      2 C         143.2330  139.2799  163.0214 C.3     1  UNL1        0.1687
      3 C         142.5409  139.0877  161.7046 C.3     1  UNL1        0.0609
      4 C         142.8537  139.9968  160.5532 C.3     1  UNL1        0.0759
      5 N         143.8586  141.0980  160.7186 N.3     1  UNL1       -0.2704
      6 C         144.5508  141.2902  162.0354 C.3     1  UNL1        0.0759
      7 C         144.2380  140.3812  163.1868 C.3     1  UNL1        0.0609
      8 O         142.9203  138.3709  164.1729 O.3     1  UNL1       -0.4782
      9 C         139.7272  140.6116  167.6056 C.3     1  UNL1        0.0329
     10 C         139.9849  139.5659  166.5615 C.ar    1  UNL1        0.0023
     11 C         138.9038  138.5948  166.1898 C.ar    1  UNL1        0.0547
     12 CL        137.5649  138.6694  166.8621 Cl      1  UNL1       -0.0825
     13 C         139.1615  137.5491  165.1457 C.ar    1  UNL1        0.0142
     14 C         140.5003  137.4745  164.4734 C.ar    1  UNL1        0.0386
     15 C         141.5814  138.4455  164.8452 C.ar    1  UNL1        0.1485
     16 C         141.3237  139.4912  165.8892 C.ar    1  UNL1        0.0884
     17 CL        142.4049  140.4623  166.2610 Cl      1  UNL1       -0.0794
     18 C         143.3231  143.2184  159.3160 C.3     1  UNL1        0.1459
     19 O         143.3062  143.8535  157.9572 O.3     1  UNL1       -0.3813
     20 H         142.7113  144.6196  157.9659 H       1  UNL1        0.2105
     21 C         142.4918  143.7946  160.4237 C.3     1  UNL1        0.1204
     22 N         141.3008  143.0412  160.9373 N.am    1  UNL1       -0.2987
     23 C         141.0918  142.8854  162.4145 C.2     1  UNL1        0.2457
     24 O         142.0738  143.4829  163.3780 O.2     1  UNL1       -0.2704
     25 H         140.6562  142.6490  160.3049 H       1  UNL1        0.1498
     26 C         139.9007  142.1320  162.9281 C.2     1  UNL1        0.0842
     27 C         139.4764  140.7575  162.5030 C.2     1  UNL1        0.1242
     28 N         138.2383  140.3968  163.2692 N.2     1  UNL1       -0.1507
     29 N         137.8974  141.5484  164.1678 N.2     1  UNL1       -0.1629
     30 C         138.9248  142.6208  163.9570 C.3     1  UNL1        0.2474
     31 C         138.9686  143.9489  164.6529 C.3     1  UNL1        0.4237
     32 F         139.0124  145.2770  165.3489 F       1  UNL1       -0.1675
     33 F         138.1416  144.5510  163.5559 F       1  UNL1       -0.1675
     34 F         139.7956  143.3468  165.7500 F       1  UNL1       -0.1675
@<TRIPOS>BOND
     1     9    10    1
     2    10    11   ar
     3    11    12    1
     4    11    13   ar
     5    13    14   ar
     6    14    15   ar
     7    15     8    1
     8     8     2    1
     9     2     3    1
    10     3     4    1
    11     4     5    1
    12     5     1    1
    13     1    18    1
    14    18    19    1
    15    18    21    1
    16    21    22    1
    17    22    23   am
    18    23    24    2
    19    23    26    1
    20    26    27    2
    21    27    28    1
    22    28    29    2
    23    29    30    1
    24    30    31    1
    25    31    32    1
    26    31    33    1
    27    31    34    1
    28     5     6    1
    29     6     7    1
    30    15    16   ar
    31    16    17    1
    32    16    10   ar
    33     7     2    1
    34    30    26    1
    35    19    20    1
    36    22    25    1
@<TRIPOS>MOLECULE
*****
 34 36 0 0 0
SMALL
GASTEIGER

@<TRIPOS>ATOM
      1 C         143.8114  138.5340  161.0273 C.3     1  UNL1        0.1034
      2 C         143.1486  138.7396  165.4734 C.3     1  UNL1        0.1687
      3 C         144.4156  139.2785  164.8783 C.3     1  UNL1        0.0609
      4 C         144.6365  139.2100  163.3962 C.3     1  UNL1        0.0759
      5 N         143.5904  138.6025  162.5093 N.3     1  UNL1       -0.2704
      6 C         142.3234  138.0635  163.1044 C.3     1  UNL1        0.0759
      7 C         142.1025  138.1320  164.5864 C.3     1  UNL1        0.0609
      8 O         142.9276  138.8081  166.9555 O.3     1  UNL1       -0.4782
      9 C         141.1773  141.3578  171.1310 C.3     1  UNL1        0.0329
     10 C         141.4132  141.2962  169.6509 C.ar    1  UNL1        0.0023
     11 C         141.0097  142.4478  168.7786 C.ar    1  UNL1        0.0547
     12 CL        140.3704  143.6611  169.3863 Cl      1  UNL1       -0.0825
     13 C         141.2456  142.3862  167.2985 C.ar    1  UNL1        0.0142
     14 C         141.8848  141.1730  166.6908 C.ar    1  UNL1        0.0386
     15 C         142.2883  140.0214  167.5632 C.ar    1  UNL1        0.1485
     16 C         142.0525  140.0830  169.0432 C.ar    1  UNL1        0.0884
     17 CL        142.4559  138.9313  169.9156 Cl      1  UNL1       -0.0794
     18 C         143.8563  139.7952  160.2166 C.3     1  UNL1        0.1459
     19 O         144.1983  139.7370  158.7573 O.3     1  UNL1       -0.3813
     20 H         144.1833  140.6329  158.3857 H       1  UNL1        0.2105
     21 C         143.5593  141.1147  160.8653 C.3     1  UNL1        0.1204
     22 N         142.1506  141.4639  161.2442 N.am    1  UNL1       -0.2987
     23 C         141.6287  142.8483  160.9972 C.2     1  UNL1        0.2457
     24 O         142.5155  143.8835  160.3713 O.2     1  UNL1       -0.2704
     25 H         141.5685  140.7844  161.6550 H       1  UNL1        0.1498
     26 C         140.2200  143.1975  161.3761 C.2     1  UNL1        0.0842
     27 C         138.9752  142.6079  160.7821 C.2     1  UNL1        0.1242
     28 N         137.7946  143.2436  161.4544 N.2     1  UNL1       -0.1507
     29 N         138.3097  144.2261  162.4640 N.2     1  UNL1       -0.1629
     30 C         139.8086  144.1976  162.4156 C.3     1  UNL1        0.2474
     31 C         140.7338  145.0241  163.2587 C.3     1  UNL1        0.4237
     32 F         141.6590  145.8508  164.1018 F       1  UNL1       -0.1675
     33 F         140.7033  143.9702  164.3255 F       1  UNL1       -0.1675
     34 F         140.7644  146.0782  162.1919 F       1  UNL1       -0.1675
@<TRIPOS>BOND
     1     9    10    1
     2    10    11   ar
     3    11    12    1
     4    11    13   ar
     5    13    14   ar
     6    14    15   ar
     7    15     8    1
     8     8     2    1
     9     2     3    1
    10     3     4    1
    11     4     5    1
    12     5     1    1
    13     1    18    1
    14    18    19    1
    15    18    21    1
    16    21    22    1
    17    22    23   am
    18    23    24    2
    19    23    26    1
    20    26    27    2
    21    27    28    1
    22    28    29    2
    23    29    30    1
    24    30    31    1
    25    31    32    1
    26    31    33    1
    27    31    34    1
    28     5     6    1
    29     6     7    1
    30    15    16   ar
    31    16    17    1
    32    16    10   ar
    33     7     2    1
    34    30    26    1
    35    19    20    1
    36    22    25    1
@<TRIPOS>MOLECULE
*****
 34 36 0 0 0
SMALL
GASTEIGER

@<TRIPOS>ATOM
      1 C         141.5696  141.1892  169.5189 C.3     1  UNL1        0.1034
      2 C         143.5027  139.7056  165.7358 C.3     1  UNL1        0.1687
      3 C         143.0882  141.1425  165.8526 C.3     1  UNL1        0.0609
      4 C         142.4438  141.6370  167.1137 C.3     1  UNL1        0.0759
      5 N         142.2140  140.6947  168.2579 N.3     1  UNL1       -0.2704
      6 C         142.6284  139.2578  168.1411 C.3     1  UNL1        0.0759
      7 C         143.2728  138.7633  166.8801 C.3     1  UNL1        0.0609
      8 O         144.1470  139.2111  164.4748 O.3     1  UNL1       -0.4782
      9 C         144.7325  142.5704  160.5541 C.3     1  UNL1        0.0329
     10 C         143.9959  141.4264  161.1855 C.ar    1  UNL1        0.0023
     11 C         142.8156  140.8179  160.4879 C.ar    1  UNL1        0.0547
     12 CL        142.3718  141.3535  159.1589 Cl      1  UNL1       -0.0825
     13 C         142.0791  139.6738  161.1193 C.ar    1  UNL1        0.0142
     14 C         142.5229  139.1382  162.4482 C.ar    1  UNL1        0.0386
     15 C         143.7032  139.7467  163.1458 C.ar    1  UNL1        0.1485
     16 C         144.4397  140.8908  162.5144 C.ar    1  UNL1        0.0884
     17 CL        145.6201  141.4992  163.2120 Cl      1  UNL1       -0.0794
     18 C         140.3460  140.5060  170.0538 C.3     1  UNL1        0.1459
     19 O         140.2936  140.0780  171.4904 O.3     1  UNL1       -0.3813
     20 H         139.4393  139.6554  171.6709 H       1  UNL1        0.2105
     21 C         139.1749  140.2508  169.1519 C.3     1  UNL1        0.1204
     22 N         139.3949  140.0017  167.6892 N.am    1  UNL1       -0.2987
     23 C         138.4709  139.0914  166.9360 C.2     1  UNL1        0.2457
     24 O         137.3267  138.4301  167.6456 O.2     1  UNL1       -0.2704
     25 H         140.1459  140.4358  167.2235 H       1  UNL1        0.1498
     26 C         138.6909  138.8423  165.4733 C.2     1  UNL1        0.0842
     27 C         139.0262  137.5225  164.8443 C.2     1  UNL1        0.1242
     28 N         139.1568  137.7338  163.3650 N.2     1  UNL1       -0.1507
     29 N         138.9024  139.1843  163.0798 N.2     1  UNL1       -0.1629
     30 C         138.6144  139.8694  164.3828 C.3     1  UNL1        0.2474
     31 C         138.3044  141.3258  164.5635 C.3     1  UNL1        0.4237
     32 F         137.9943  142.7823  164.7441 F       1  UNL1       -0.1675
     33 F         139.6657  141.5422  165.1550 F       1  UNL1       -0.1675
     34 F         136.9431  141.1094  163.9719 F       1  UNL1       -0.1675
@<TRIPOS>BOND
     1     9    10    1
     2    10    11   ar
     3    11    12    1
     4    11    13   ar
     5    13    14   ar
     6    14    15   ar
     7    15     8    1
     8     8     2    1
     9     2     3    1
    10     3     4    1
    11     4     5    1
    12     5     1    1
    13     1    18    1
    14    18    19    1
    15    18    21    1
    16    21    22    1
    17    22    23   am
    18    23    24    2
    19    23    26    1
    20    26    27    2
    21    27    28    1
    22    28    29    2
    23    29    30    1
    24    30    31    1
    25    31    32    1
    26    31    33    1
    27    31    34    1
    28     5     6    1
    29     6     7    1
    30    15    16   ar
    31    16    17    1
    32    16    10   ar
    33     7     2    1
    34    30    26    1
    35    19    20    1
    36    22    25    1
@<TRIPOS>MOLECULE
*****
 34 36 0 0 0
SMALL
GASTEIGER

@<TRIPOS>ATOM
      1 C         139.1024  138.2806  161.3311 C.3     1  UNL1        0.1034
      2 C         140.9051  138.9133  165.4054 C.3     1  UNL1        0.1687
      3 C         139.4376  139.1381  165.1914 C.3     1  UNL1        0.0609
      4 C         138.8367  138.9272  163.8333 C.3     1  UNL1        0.0759
      5 N         139.7033  138.4915  162.6892 N.3     1  UNL1       -0.2704
      6 C         141.1708  138.2666  162.9031 C.3     1  UNL1        0.0759
      7 C         141.7717  138.4775  164.2612 C.3     1  UNL1        0.0609
      8 O         141.5061  139.1241  166.7634 O.3     1  UNL1       -0.4782
      9 C         141.3788  141.7533  171.2435 C.3     1  UNL1        0.0329
     10 C         141.1606  141.7027  169.7603 C.ar    1  UNL1        0.0023
     11 C         140.6604  142.9161  169.0340 C.ar    1  UNL1        0.0547
     12 CL        140.3785  144.1802  169.7909 Cl      1  UNL1       -0.0825
     13 C         140.4421  142.8655  167.5509 C.ar    1  UNL1        0.0142
     14 C         140.7240  141.6015  166.7940 C.ar    1  UNL1        0.0386
     15 C         141.2242  140.3882  167.5203 C.ar    1  UNL1        0.1485
     16 C         141.4424  140.4388  169.0035 C.ar    1  UNL1        0.0884
     17 CL        141.9426  139.2253  169.7298 Cl      1  UNL1       -0.0794
     18 C         139.3403  139.2838  160.2416 C.3     1  UNL1        0.1459
     19 O         138.9399  138.9683  158.8310 O.3     1  UNL1       -0.3813
     20 H         139.1620  139.7176  158.2565 H       1  UNL1        0.2105
     21 C         139.9788  140.6026  160.5629 C.3     1  UNL1        0.1204
     22 N         139.2913  141.5634  161.4872 N.am    1  UNL1       -0.2987
     23 C         140.0328  142.1398  162.6567 C.2     1  UNL1        0.2457
     24 O         141.4618  141.7555  162.9020 O.2     1  UNL1       -0.2704
     25 H         138.3534  141.8156  161.3262 H       1  UNL1        0.1498
     26 C         139.3453  143.1005  163.5810 C.2     1  UNL1        0.0842
     27 C         137.9738  142.9337  164.1651 C.2     1  UNL1        0.1242
     28 N         137.6894  144.1269  165.0286 N.2     1  UNL1       -0.1507
     29 N         138.8851  145.0311  164.9781 N.2     1  UNL1       -0.1629
     30 C         139.9085  144.3968  164.0834 C.3     1  UNL1        0.2474
     31 C         141.2581  144.9600  163.7498 C.3     1  UNL1        0.4237
     32 F         142.6079  145.5231  163.4162 F       1  UNL1       -0.1675
     33 F         140.6412  145.7992  162.6705 F       1  UNL1       -0.1675
     34 F         141.8751  144.1207  164.8291 F       1  UNL1       -0.1675
@<TRIPOS>BOND
     1     9    10    1
     2    10    11   ar
     3    11    12    1
     4    11    13   ar
     5    13    14   ar
     6    14    15   ar
     7    15     8    1
     8     8     2    1
     9     2     3    1
    10     3     4    1
    11     4     5    1
    12     5     1    1
    13     1    18    1
    14    18    19    1
    15    18    21    1
    16    21    22    1
    17    22    23   am
    18    23    24    2
    19    23    26    1
    20    26    27    2
    21    27    28    1
    22    28    29    2
    23    29    30    1
    24    30    31    1
    25    31    32    1
    26    31    33    1
    27    31    34    1
    28     5     6    1
    29     6     7    1
    30    15    16   ar
    31    16    17    1
    32    16    10   ar
    33     7     2    1
    34    30    26    1
    35    19    20    1
    36    22    25    1
