@<TRIPOS>MOLECULE
*****
 20 22 0 0 0
SMALL
GASTEIGER

@<TRIPOS>ATOM
      1 C         143.0729  143.3540  164.7130 C.ar    1  UNL1       -0.0032
      2 C         142.7962  142.5002  165.9149 C.ar    1  UNL1        0.0758
      3 N         141.3294  142.5861  166.2166 N.ar    1  UNL1       -0.3052
      4 C         140.6995  143.4928  165.2013 C.ar    1  UNL1        0.0638
      5 C         139.2840  143.9477  165.0028 C.ar    1  UNL1        0.0184
      6 C         138.9461  144.8771  163.8751 C.ar    1  UNL1        0.0129
      7 C         140.0236  145.3517  162.9458 C.ar    1  UNL1        0.0578
      8 CL        139.6856  146.2812  161.8180 Cl      1  UNL1       -0.0822
      9 C         141.4391  144.8969  163.1442 C.ar    1  UNL1        0.0126
     10 C         141.7771  143.9675  164.2719 C.ar    1  UNL1        0.0144
     11 C         140.6174  141.8877  167.3371 C.ar    1  UNL1        0.0642
     12 C         140.5563  142.5196  168.6962 C.ar    1  UNL1        0.0198
     13 C         139.8443  141.8212  169.8167 C.ar    1  UNL1        0.0311
     14 C         139.1935  140.4910  169.5780 C.ar    1  UNL1        0.1402
     15 F         138.4815  139.7927  170.6985 F       1  UNL1       -0.2042
     16 C         139.2546  139.8592  168.2190 C.ar    1  UNL1        0.0311
     17 C         139.9666  140.5576  167.0985 C.ar    1  UNL1        0.0198
     18 C         144.4106  143.5584  164.0658 C.3     1  UNL1        0.0279
     19 C         145.7491  141.3483  163.7940 C.3     1  UNL1        0.0004
     20 C         144.9893  142.4900  163.1862 C.3     1  UNL1        0.0047
@<TRIPOS>BOND
     1    19    20    1
     2    20    18    1
     3    18     1    1
     4     1     2   ar
     5     2     3   ar
     6     3    11    1
     7    11    12   ar
     8    12    13   ar
     9    13    14   ar
    10    14    15    1
    11    14    16   ar
    12    16    17   ar
    13     3     4   ar
    14     4     5   ar
    15     5     6   ar
    16     6     7   ar
    17     7     8    1
    18     7     9   ar
    19     9    10   ar
    20    10     1   ar
    21    17    11   ar
    22    10     4   ar
@<TRIPOS>MOLECULE
*****
 20 22 0 0 0
SMALL
GASTEIGER

@<TRIPOS>ATOM
      1 C         139.1010  139.6425  165.9161 C.ar    1  UNL1       -0.0032
      2 C         139.9190  139.8723  167.1522 C.ar    1  UNL1        0.0758
      3 N         140.3368  141.3128  167.1704 N.ar    1  UNL1       -0.3052
      4 C         139.7770  141.9734  165.9456 C.ar    1  UNL1        0.0638
      5 C         139.8641  143.3814  165.4360 C.ar    1  UNL1        0.0184
      6 C         139.1873  143.7572  164.1512 C.ar    1  UNL1        0.0129
      7 C         138.4235  142.7249  163.3760 C.ar    1  UNL1        0.0578
      8 CL        137.7467  143.1008  162.0911 Cl      1  UNL1       -0.0822
      9 C         138.3364  141.3169  163.8855 C.ar    1  UNL1        0.0126
     10 C         139.0132  140.9411  165.1703 C.ar    1  UNL1        0.0144
     11 C         141.1685  141.9763  168.2278 C.ar    1  UNL1        0.0642
     12 C         142.6223  141.6327  168.3640 C.ar    1  UNL1        0.0198
     13 C         143.4540  142.2962  169.4214 C.ar    1  UNL1        0.0311
     14 C         142.8319  143.3033  170.3427 C.ar    1  UNL1        0.1402
     15 F         143.6635  143.9668  171.4001 F       1  UNL1       -0.2042
     16 C         141.3781  143.6469  170.2065 C.ar    1  UNL1        0.0311
     17 C         140.5465  142.9834  169.1491 C.ar    1  UNL1        0.0198
     18 C         138.4797  138.3425  165.4989 C.3     1  UNL1        0.0279
     19 C         138.7822  137.6880  163.0028 C.3     1  UNL1        0.0004
     20 C         139.1388  137.4995  164.4476 C.3     1  UNL1        0.0047
@<TRIPOS>BOND
     1    19    20    1
     2    20    18    1
     3    18     1    1
     4     1     2   ar
     5     2     3   ar
     6     3    11    1
     7    11    12   ar
     8    12    13   ar
     9    13    14   ar
    10    14    15    1
    11    14    16   ar
    12    16    17   ar
    13     3     4   ar
    14     4     5   ar
    15     5     6   ar
    16     6     7   ar
    17     7     8    1
    18     7     9   ar
    19     9    10   ar
    20    10     1   ar
    21    17    11   ar
    22    10     4   ar
@<TRIPOS>MOLECULE
*****
 20 22 0 0 0
SMALL
GASTEIGER

@<TRIPOS>ATOM
      1 C         138.7042  139.7593  166.2643 C.ar    1  UNL1       -0.0032
      2 C         138.5742  140.6776  165.0854 C.ar    1  UNL1        0.0758
      3 N         139.3233  141.9395  165.3961 N.ar    1  UNL1       -0.3052
      4 C         139.9162  141.8011  166.7670 C.ar    1  UNL1        0.0638
      5 C         140.7551  142.7279  167.5959 C.ar    1  UNL1        0.0184
      6 C         141.2113  142.3073  168.9615 C.ar    1  UNL1        0.0129
      7 C         140.8287  140.9598  169.4981 C.ar    1  UNL1        0.0578
      8 CL        141.2850  140.5392  170.8638 Cl      1  UNL1       -0.0822
      9 C         139.9898  140.0330  168.6691 C.ar    1  UNL1        0.0126
     10 C         139.5336  140.4536  167.3036 C.ar    1  UNL1        0.0144
     11 C         139.4561  143.1307  164.4942 C.ar    1  UNL1        0.0642
     12 C         138.2643  143.6326  163.7341 C.ar    1  UNL1        0.0198
     13 C         138.3971  144.8238  162.8322 C.ar    1  UNL1        0.0311
     14 C         139.7218  145.5132  162.6905 C.ar    1  UNL1        0.1402
     15 F         139.8546  146.7044  161.7886 F       1  UNL1       -0.2042
     16 C         140.9135  145.0114  163.4506 C.ar    1  UNL1        0.0311
     17 C         140.7807  143.8201  164.3524 C.ar    1  UNL1        0.0198
     18 C         138.1092  138.3875  166.3831 C.3     1  UNL1        0.0279
     19 C         139.9308  137.3834  164.8262 C.3     1  UNL1        0.0004
     20 C         138.5900  137.2816  165.4908 C.3     1  UNL1        0.0047
@<TRIPOS>BOND
     1    19    20    1
     2    20    18    1
     3    18     1    1
     4     1     2   ar
     5     2     3   ar
     6     3    11    1
     7    11    12   ar
     8    12    13   ar
     9    13    14   ar
    10    14    15    1
    11    14    16   ar
    12    16    17   ar
    13     3     4   ar
    14     4     5   ar
    15     5     6   ar
    16     6     7   ar
    17     7     8    1
    18     7     9   ar
    19     9    10   ar
    20    10     1   ar
    21    17    11   ar
    22    10     4   ar
@<TRIPOS>MOLECULE
*****
 20 22 0 0 0
SMALL
GASTEIGER

@<TRIPOS>ATOM
      1 C         140.5180  141.6386  168.0055 C.ar    1  UNL1       -0.0032
      2 C         140.7948  142.8502  167.1657 C.ar    1  UNL1        0.0758
      3 N         140.0825  142.6793  165.8567 N.ar    1  UNL1       -0.3052
      4 C         139.3656  141.3621  165.8875 C.ar    1  UNL1        0.0638
      5 C         138.5025  140.6653  164.8779 C.ar    1  UNL1        0.0184
      6 C         137.9085  139.3253  165.1964 C.ar    1  UNL1        0.0129
      7 C         138.1776  138.6820  166.5244 C.ar    1  UNL1        0.0578
      8 CL        137.5836  137.3419  166.8429 Cl      1  UNL1       -0.0822
      9 C         139.0408  139.3788  167.5341 C.ar    1  UNL1        0.0126
     10 C         139.6347  140.7189  167.2156 C.ar    1  UNL1        0.0144
     11 C         140.0865  143.6545  164.7169 C.ar    1  UNL1        0.0642
     12 C         138.7993  144.0225  164.0402 C.ar    1  UNL1        0.0198
     13 C         138.8033  144.9976  162.9004 C.ar    1  UNL1        0.0311
     14 C         140.0943  145.6048  162.4373 C.ar    1  UNL1        0.1402
     15 F         140.0983  146.5799  161.2976 F       1  UNL1       -0.2042
     16 C         141.3814  145.2368  163.1140 C.ar    1  UNL1        0.0311
     17 C         141.3775  144.2616  164.2538 C.ar    1  UNL1        0.0198
     18 C         141.0340  141.3902  169.3920 C.3     1  UNL1        0.0279
     19 C         142.3124  139.1761  169.8544 C.3     1  UNL1        0.0004
     20 C         142.3250  140.6527  169.5909 C.3     1  UNL1        0.0047
@<TRIPOS>BOND
     1    19    20    1
     2    20    18    1
     3    18     1    1
     4     1     2   ar
     5     2     3   ar
     6     3    11    1
     7    11    12   ar
     8    12    13   ar
     9    13    14   ar
    10    14    15    1
    11    14    16   ar
    12    16    17   ar
    13     3     4   ar
    14     4     5   ar
    15     5     6   ar
    16     6     7   ar
    17     7     8    1
    18     7     9   ar
    19     9    10   ar
    20    10     1   ar
    21    17    11   ar
    22    10     4   ar
@<TRIPOS>MOLECULE
*****
 20 22 0 0 0
SMALL
GASTEIGER

@<TRIPOS>ATOM
      1 C         142.9092  139.6503  164.9578 C.ar    1  UNL1       -0.0032
      2 C         142.8112  140.3764  166.2667 C.ar    1  UNL1        0.0758
      3 N         141.3573  140.5487  166.5933 N.ar    1  UNL1       -0.3052
      4 C         140.5569  139.9291  165.4863 C.ar    1  UNL1        0.0638
      5 C         139.0786  139.7988  165.2682 C.ar    1  UNL1        0.0184
      6 C         138.5594  139.1133  164.0392 C.ar    1  UNL1        0.0129
      7 C         139.5186  138.5581  163.0283 C.ar    1  UNL1        0.0578
      8 CL        138.9993  137.8725  161.7993 Cl      1  UNL1       -0.0822
      9 C         140.9968  138.6884  163.2465 C.ar    1  UNL1        0.0126
     10 C         141.5160  139.3739  164.4755 C.ar    1  UNL1        0.0144
     11 C         140.8015  141.2223  167.8129 C.ar    1  UNL1        0.0642
     12 C         140.0310  140.4260  168.8240 C.ar    1  UNL1        0.0198
     13 C         139.4752  141.0996  170.0436 C.ar    1  UNL1        0.0311
     14 C         139.6898  142.5694  170.2520 C.ar    1  UNL1        0.1402
     15 F         139.1340  143.2430  171.4716 F       1  UNL1       -0.2042
     16 C         140.4603  143.3657  169.2409 C.ar    1  UNL1        0.0311
     17 C         141.0161  142.6921  168.0214 C.ar    1  UNL1        0.0198
     18 C         144.1778  139.2678  164.2546 C.3     1  UNL1        0.0279
     19 C         145.6810  141.3511  163.8667 C.3     1  UNL1        0.0004
     20 C         144.8386  140.2371  163.3196 C.3     1  UNL1        0.0047
@<TRIPOS>BOND
     1    19    20    1
     2    20    18    1
     3    18     1    1
     4     1     2   ar
     5     2     3   ar
     6     3    11    1
     7    11    12   ar
     8    12    13   ar
     9    13    14   ar
    10    14    15    1
    11    14    16   ar
    12    16    17   ar
    13     3     4   ar
    14     4     5   ar
    15     5     6   ar
    16     6     7   ar
    17     7     8    1
    18     7     9   ar
    19     9    10   ar
    20    10     1   ar
    21    17    11   ar
    22    10     4   ar
@<TRIPOS>MOLECULE
*****
 20 22 0 0 0
SMALL
GASTEIGER

@<TRIPOS>ATOM
      1 C         141.1708  141.7505  168.5085 C.ar    1  UNL1       -0.0032
      2 C         140.5503  142.8702  167.7267 C.ar    1  UNL1        0.0758
      3 N         140.8728  142.6578  166.2773 N.ar    1  UNL1       -0.3052
      4 C         141.6926  141.4068  166.1633 C.ar    1  UNL1        0.0638
      5 C         142.2951  140.7058  164.9820 C.ar    1  UNL1        0.0184
      6 C         143.0819  139.4441  165.1797 C.ar    1  UNL1        0.0129
      7 C         143.2661  138.8834  166.5587 C.ar    1  UNL1        0.0578
      8 CL        144.0529  137.6216  166.7564 Cl      1  UNL1       -0.0822
      9 C         142.6635  139.5844  167.7400 C.ar    1  UNL1        0.0126
     10 C         141.8768  140.8461  167.5423 C.ar    1  UNL1        0.0144
     11 C         140.4497  143.5412  165.1412 C.ar    1  UNL1        0.0642
     12 C         138.9936  143.7035  164.8194 C.ar    1  UNL1        0.0198
     13 C         138.5706  144.5870  163.6833 C.ar    1  UNL1        0.0311
     14 C         139.6036  145.3081  162.8691 C.ar    1  UNL1        0.1402
     15 F         139.1806  146.1915  161.7331 F       1  UNL1       -0.2042
     16 C         141.0596  145.1457  163.1910 C.ar    1  UNL1        0.0311
     17 C         141.4826  144.2623  164.3271 C.ar    1  UNL1        0.0198
     18 C         141.0981  141.5674  169.9955 C.3     1  UNL1        0.0279
     19 C         138.8630  140.2570  169.8009 C.3     1  UNL1        0.0004
     20 C         140.0828  140.6352  170.5877 C.3     1  UNL1        0.0047
@<TRIPOS>BOND
     1    19    20    1
     2    20    18    1
     3    18     1    1
     4     1     2   ar
     5     2     3   ar
     6     3    11    1
     7    11    12   ar
     8    12    13   ar
     9    13    14   ar
    10    14    15    1
    11    14    16   ar
    12    16    17   ar
    13     3     4   ar
    14     4     5   ar
    15     5     6   ar
    16     6     7   ar
    17     7     8    1
    18     7     9   ar
    19     9    10   ar
    20    10     1   ar
    21    17    11   ar
    22    10     4   ar
@<TRIPOS>MOLECULE
*****
 20 22 0 0 0
SMALL
GASTEIGER

@<TRIPOS>ATOM
      1 C         138.6020  142.6291  164.3789 C.ar    1  UNL1       -0.0032
      2 C         139.3046  143.3194  165.5102 C.ar    1  UNL1        0.0758
      3 N         140.0355  142.2788  166.3058 N.ar    1  UNL1       -0.3052
      4 C         139.7847  140.9454  165.6662 C.ar    1  UNL1        0.0638
      5 C         140.2487  139.5621  166.0143 C.ar    1  UNL1        0.0184
      6 C         139.8266  138.3953  165.1715 C.ar    1  UNL1        0.0129
      7 C         138.9406  138.6117  163.9807 C.ar    1  UNL1        0.0578
      8 CL        138.5185  137.4448  163.1379 Cl      1  UNL1       -0.0822
      9 C         138.4767  139.9950  163.6325 C.ar    1  UNL1        0.0126
     10 C         138.8987  141.1619  164.4753 C.ar    1  UNL1        0.0144
     11 C         140.8707  142.5279  167.5266 C.ar    1  UNL1        0.0642
     12 C         140.2679  143.2033  168.7228 C.ar    1  UNL1        0.0198
     13 C         141.1030  143.4524  169.9436 C.ar    1  UNL1        0.0311
     14 C         142.5410  143.0262  169.9683 C.ar    1  UNL1        0.1402
     15 F         143.3762  143.2753  171.1892 F       1  UNL1       -0.2042
     16 C         143.1438  142.3509  168.7723 C.ar    1  UNL1        0.0311
     17 C         142.3086  142.1018  167.5514 C.ar    1  UNL1        0.0198
     18 C         137.7519  143.2899  163.3346 C.3     1  UNL1        0.0279
     19 C         139.5994  143.3506  161.5088 C.3     1  UNL1        0.0004
     20 C         138.1540  143.2279  161.8907 C.3     1  UNL1        0.0047
@<TRIPOS>BOND
     1    19    20    1
     2    20    18    1
     3    18     1    1
     4     1     2   ar
     5     2     3   ar
     6     3    11    1
     7    11    12   ar
     8    12    13   ar
     9    13    14   ar
    10    14    15    1
    11    14    16   ar
    12    16    17   ar
    13     3     4   ar
    14     4     5   ar
    15     5     6   ar
    16     6     7   ar
    17     7     8    1
    18     7     9   ar
    19     9    10   ar
    20    10     1   ar
    21    17    11   ar
    22    10     4   ar
@<TRIPOS>MOLECULE
*****
 20 22 0 0 0
SMALL
GASTEIGER

@<TRIPOS>ATOM
      1 C         142.6426  142.8043  163.9172 C.ar    1  UNL1       -0.0032
      2 C         142.2613  141.5082  164.5690 C.ar    1  UNL1        0.0758
      3 N         140.7686  141.3773  164.5021 N.ar    1  UNL1       -0.3052
      4 C         140.2273  142.5924  163.8089 C.ar    1  UNL1        0.0638
      5 C         138.8294  143.0098  163.4602 C.ar    1  UNL1        0.0184
      6 C         138.5898  144.3091  162.7500 C.ar    1  UNL1        0.0129
      7 C         139.7480  145.1910  162.3885 C.ar    1  UNL1        0.0578
      8 CL        139.5083  146.4903  161.6783 Cl      1  UNL1       -0.0822
      9 C         141.1459  144.7736  162.7373 C.ar    1  UNL1        0.0126
     10 C         141.3855  143.4744  163.4475 C.ar    1  UNL1        0.0144
     11 C         139.9591  140.2323  165.0348 C.ar    1  UNL1        0.0642
     12 C         139.9904  138.9038  164.3387 C.ar    1  UNL1        0.0198
     13 C         139.1810  137.7588  164.8714 C.ar    1  UNL1        0.0311
     14 C         138.3403  137.9422  166.1001 C.ar    1  UNL1        0.1402
     15 F         137.5309  136.7971  166.6327 F       1  UNL1       -0.2042
     16 C         138.3090  139.2706  166.7960 C.ar    1  UNL1        0.0311
     17 C         139.1184  140.4156  166.2633 C.ar    1  UNL1        0.0198
     18 C         144.0364  143.3368  163.7624 C.3     1  UNL1        0.0279
     19 C         145.8312  141.4584  163.7871 C.3     1  UNL1        0.0004
     20 C         145.1831  142.6445  164.4376 C.3     1  UNL1        0.0047
@<TRIPOS>BOND
     1    19    20    1
     2    20    18    1
     3    18     1    1
     4     1     2   ar
     5     2     3   ar
     6     3    11    1
     7    11    12   ar
     8    12    13   ar
     9    13    14   ar
    10    14    15    1
    11    14    16   ar
    12    16    17   ar
    13     3     4   ar
    14     4     5   ar
    15     5     6   ar
    16     6     7   ar
    17     7     8    1
    18     7     9   ar
    19     9    10   ar
    20    10     1   ar
    21    17    11   ar
    22    10     4   ar
@<TRIPOS>MOLECULE
*****
 20 22 0 0 0
SMALL
GASTEIGER

@<TRIPOS>ATOM
      1 C         138.7764  142.8194  164.7411 C.ar    1  UNL1       -0.0032
      2 C         139.5628  142.6202  166.0028 C.ar    1  UNL1        0.0758
      3 N         139.9016  141.1631  166.1126 N.ar    1  UNL1       -0.3052
      4 C         139.3246  140.4618  164.9188 C.ar    1  UNL1        0.0638
      5 C         139.3426  139.0233  164.4942 C.ar    1  UNL1        0.0184
      6 C         138.6651  138.6084  163.2218 C.ar    1  UNL1        0.0129
      7 C         137.9697  139.6321  162.3741 C.ar    1  UNL1        0.0578
      8 CL        137.2923  139.2172  161.1017 Cl      1  UNL1       -0.0822
      9 C         137.9517  141.0705  162.7988 C.ar    1  UNL1        0.0126
     10 C         138.6292  141.4854  164.0712 C.ar    1  UNL1        0.0144
     11 C         140.6806  140.5202  167.2216 C.ar    1  UNL1        0.0642
     12 C         142.0266  139.9198  166.9424 C.ar    1  UNL1        0.0198
     13 C         142.8057  139.2769  168.0514 C.ar    1  UNL1        0.0311
     14 C         142.2388  139.2344  169.4395 C.ar    1  UNL1        0.1402
     15 F         143.0178  138.5915  170.5485 F       1  UNL1       -0.2042
     16 C         140.8929  139.8348  169.7186 C.ar    1  UNL1        0.0311
     17 C         140.1138  140.4777  168.6097 C.ar    1  UNL1        0.0198
     18 C         138.2327  144.1236  164.2377 C.3     1  UNL1        0.0279
     19 C         140.4176  145.0111  163.1472 C.3     1  UNL1        0.0004
     20 C         138.9271  144.8444  163.1203 C.3     1  UNL1        0.0047
@<TRIPOS>BOND
     1    19    20    1
     2    20    18    1
     3    18     1    1
     4     1     2   ar
     5     2     3   ar
     6     3    11    1
     7    11    12   ar
     8    12    13   ar
     9    13    14   ar
    10    14    15    1
    11    14    16   ar
    12    16    17   ar
    13     3     4   ar
    14     4     5   ar
    15     5     6   ar
    16     6     7   ar
    17     7     8    1
    18     7     9   ar
    19     9    10   ar
    20    10     1   ar
    21    17    11   ar
    22    10     4   ar
