@<TRIPOS>MOLECULE
*****
 36 39 0 0 0
SMALL
GASTEIGER

@<TRIPOS>ATOM
      1 O         138.4283  138.1654  162.3183 O.2     1  UNL1       -0.2224
      2 C         138.5273  139.0053  163.5572 C.2     1  UNL1        0.4453
      3 N         139.6552  138.7884  164.5221 N.am    1  UNL1       -0.0488
      4 S         139.7542  139.6282  165.7610 S.O2    1  UNL1        0.0964
      5 O         140.6263  140.6049  165.0292 O.2     1  UNL1       -0.1482
      6 O         138.8821  138.6515  166.4928 O.2     1  UNL1       -0.1482
      7 C         139.8532  140.4681  166.9999 C.ar    1  UNL1        0.1272
      8 C         139.3292  139.9450  168.3044 C.ar    1  UNL1        0.0211
      9 C         139.4282  140.7849  169.5433 C.ar    1  UNL1        0.0128
     10 C         140.0513  142.1477  169.4777 C.ar    1  UNL1        0.0578
     11 CL        140.1504  142.9875  170.7166 Cl      1  UNL1       -0.0822
     12 C         140.5754  142.6708  168.1732 C.ar    1  UNL1        0.0128
     13 C         140.4764  141.8310  166.9343 C.ar    1  UNL1        0.0211
     14 N         140.6839  137.7317  164.2481 N.pl3   1  UNL1       -0.2381
     15 H         140.6174  136.8539  164.6889 H       1  UNL1        0.1721
     16 C         141.8139  138.0125  163.3025 C.ar    1  UNL1        0.0631
     17 C         143.0560  138.6916  163.7987 C.ar    1  UNL1        0.0159
     18 C         144.1860  138.9724  162.8531 C.ar    1  UNL1        0.0013
     19 C         144.0740  138.5741  161.4113 C.ar    1  UNL1        0.0001
     20 C         142.8320  137.8950  160.9151 C.ar    1  UNL1        0.0013
     21 C         141.7019  137.6142  161.8607 C.ar    1  UNL1        0.0159
     22 O         137.4986  140.0619  163.8312 O.3     1  UNL1       -0.4080
     23 C         137.7475  141.4790  163.4069 C.ar    1  UNL1        0.1503
     24 C         137.7409  142.5793  164.4263 C.ar    1  UNL1        0.0408
     25 C         137.9898  143.9963  164.0020 C.ar    1  UNL1        0.0400
     26 C         138.2453  144.3130  162.5583 C.ar    1  UNL1        0.1393
     27 C         138.2519  143.2127  161.5388 C.ar    1  UNL1        0.0400
     28 C         138.0030  141.7957  161.9632 C.ar    1  UNL1        0.0408
     29 O         138.4943  145.7301  162.1340 O.3     1  UNL1       -0.4706
     30 C         139.8868  146.1814  161.8067 C.3     1  UNL1        0.2320
     31 C         141.0626  145.3485  162.2238 C.ar    1  UNL1        0.0212
     32 C         141.7622  144.4822  161.2188 C.ar    1  UNL1       -0.0007
     33 C         142.9380  143.6494  161.6358 C.ar    1  UNL1       -0.0002
     34 C         143.4141  143.6829  163.0578 C.ar    1  UNL1       -0.0000
     35 C         142.7145  144.5492  164.0628 C.ar    1  UNL1       -0.0002
     36 C         141.5388  145.3820  163.6458 C.ar    1  UNL1       -0.0007
@<TRIPOS>BOND
     1     1     2    2
     2     2    22    1
     3    22    23    1
     4    23    24   ar
     5    24    25   ar
     6    25    26   ar
     7    26    29    1
     8    29    30    1
     9    30    31    1
    10    31    32   ar
    11    32    33   ar
    12    33    34   ar
    13    34    35   ar
    14    35    36   ar
    15    26    27   ar
    16    27    28   ar
    17     2     3   am
    18     3    14    1
    19    14    16    1
    20    16    17   ar
    21    17    18   ar
    22    18    19   ar
    23    19    20   ar
    24    20    21   ar
    25     3     4    1
    26     4     5    2
    27     4     6    2
    28     4     7    1
    29     7     8   ar
    30     8     9   ar
    31     9    10   ar
    32    10    11    1
    33    10    12   ar
    34    12    13   ar
    35    28    23   ar
    36    21    16   ar
    37    13     7   ar
    38    36    31   ar
    39    14    15    1
@<TRIPOS>MOLECULE
*****
 36 39 0 0 0
SMALL
GASTEIGER

@<TRIPOS>ATOM
      1 O         144.2469  137.6447  166.9473 O.2     1  UNL1       -0.2224
      2 C         143.6882  138.7796  166.1412 C.2     1  UNL1        0.4453
      3 N         142.9698  139.9040  166.8267 N.am    1  UNL1       -0.0488
      4 S         142.4110  141.0389  166.0207 S.O2    1  UNL1        0.0964
      5 O         143.7520  141.7109  166.0372 O.2     1  UNL1       -0.1482
      6 O         141.0700  140.3670  166.0041 O.2     1  UNL1       -0.1482
      7 C         141.8522  142.1739  165.2146 C.ar    1  UNL1        0.1272
      8 C         142.3819  142.4485  163.8384 C.ar    1  UNL1        0.0211
      9 C         141.8231  143.5834  163.0324 C.ar    1  UNL1        0.0128
     10 C         140.7347  144.4438  163.6026 C.ar    1  UNL1        0.0578
     11 CL        140.1760  145.5787  162.7965 Cl      1  UNL1       -0.0822
     12 C         140.2050  144.1692  164.9789 C.ar    1  UNL1        0.0128
     13 C         140.7638  143.0342  165.7849 C.ar    1  UNL1        0.0211
     14 N         142.8101  139.8933  168.3181 N.pl3   1  UNL1       -0.2381
     15 H         143.2870  139.2235  168.8594 H       1  UNL1        0.1721
     16 C         141.9239  140.9034  168.9847 C.ar    1  UNL1        0.0631
     17 C         142.4399  142.2831  169.2680 C.ar    1  UNL1        0.0159
     18 C         141.5537  143.2931  169.9346 C.ar    1  UNL1        0.0013
     19 C         140.1514  142.9235  170.3179 C.ar    1  UNL1        0.0001
     20 C         139.6353  141.5439  170.0346 C.ar    1  UNL1        0.0013
     21 C         140.5216  140.5338  169.3680 C.ar    1  UNL1        0.0159
     22 O         143.8478  138.7903  164.6498 O.3     1  UNL1       -0.4080
     23 C         142.6622  138.5358  163.7668 C.ar    1  UNL1        0.1503
     24 C         141.5599  137.6318  164.2332 C.ar    1  UNL1        0.0408
     25 C         140.3744  137.3774  163.3501 C.ar    1  UNL1        0.0400
     26 C         140.2912  138.0270  162.0007 C.ar    1  UNL1        0.1393
     27 C         141.3935  138.9311  161.5343 C.ar    1  UNL1        0.0400
     28 C         142.5790  139.1855  162.4173 C.ar    1  UNL1        0.0408
     29 O         139.1056  137.7726  161.1176 O.3     1  UNL1       -0.4706
     30 C         137.8187  138.5039  161.3607 C.3     1  UNL1        0.2320
     31 C         137.8424  139.9389  161.7968 C.ar    1  UNL1        0.0212
     32 C         137.6784  140.2848  163.2471 C.ar    1  UNL1       -0.0007
     33 C         137.7020  141.7197  163.6832 C.ar    1  UNL1       -0.0002
     34 C         137.8896  142.8089  162.6690 C.ar    1  UNL1       -0.0000
     35 C         138.0536  142.4630  161.2187 C.ar    1  UNL1       -0.0002
     36 C         138.0299  141.0280  160.7826 C.ar    1  UNL1       -0.0007
@<TRIPOS>BOND
     1     1     2    2
     2     2    22    1
     3    22    23    1
     4    23    24   ar
     5    24    25   ar
     6    25    26   ar
     7    26    29    1
     8    29    30    1
     9    30    31    1
    10    31    32   ar
    11    32    33   ar
    12    33    34   ar
    13    34    35   ar
    14    35    36   ar
    15    26    27   ar
    16    27    28   ar
    17     2     3   am
    18     3    14    1
    19    14    16    1
    20    16    17   ar
    21    17    18   ar
    22    18    19   ar
    23    19    20   ar
    24    20    21   ar
    25     3     4    1
    26     4     5    2
    27     4     6    2
    28     4     7    1
    29     7     8   ar
    30     8     9   ar
    31     9    10   ar
    32    10    11    1
    33    10    12   ar
    34    12    13   ar
    35    28    23   ar
    36    21    16   ar
    37    13     7   ar
    38    36    31   ar
    39    14    15    1
@<TRIPOS>MOLECULE
*****
 36 39 0 0 0
SMALL
GASTEIGER

@<TRIPOS>ATOM
      1 O         137.3579  138.7026  166.8875 O.2     1  UNL1       -0.2224
      2 C         138.6083  139.0996  166.1603 C.2     1  UNL1        0.4453
      3 N         139.7054  139.8159  166.8908 N.am    1  UNL1       -0.0488
      4 S         140.9558  140.2129  166.1635 S.O2    1  UNL1        0.0964
      5 O         141.5173  138.8386  166.3786 O.2     1  UNL1       -0.1482
      6 O         140.3944  141.5871  165.9485 O.2     1  UNL1       -0.1482
      7 C         142.2063  140.6099  165.4363 C.ar    1  UNL1        0.1272
      8 C         142.7091  139.7735  164.2972 C.ar    1  UNL1        0.0211
      9 C         143.9595  140.1706  163.5700 C.ar    1  UNL1        0.0128
     10 C         144.7071  141.4040  163.9819 C.ar    1  UNL1        0.0578
     11 CL        145.9575  141.8010  163.2547 Cl      1  UNL1       -0.0822
     12 C         144.2043  142.2405  165.1211 C.ar    1  UNL1        0.0128
     13 C         142.9539  141.8434  165.8483 C.ar    1  UNL1        0.0211
     14 N         139.5521  140.1350  168.3483 N.pl3   1  UNL1       -0.2381
     15 H         138.7909  139.7698  168.8548 H       1  UNL1        0.1721
     16 C         140.5585  141.0106  169.0343 C.ar    1  UNL1        0.0631
     17 C         140.2806  142.4736  169.2147 C.ar    1  UNL1        0.0159
     18 C         141.2870  143.3491  169.9006 C.ar    1  UNL1        0.0013
     19 C         142.5713  142.7617  170.4061 C.ar    1  UNL1        0.0001
     20 C         142.8492  141.2988  170.2258 C.ar    1  UNL1        0.0013
     21 C         141.8428  140.4232  169.5398 C.ar    1  UNL1        0.0159
     22 O         138.7617  138.7805  164.7027 O.3     1  UNL1       -0.4080
     23 C         138.6847  139.8775  163.6826 C.ar    1  UNL1        0.1503
     24 C         137.7625  141.0404  163.8999 C.ar    1  UNL1        0.0408
     25 C         137.6856  142.1374  162.8798 C.ar    1  UNL1        0.0400
     26 C         138.5307  142.0714  161.6423 C.ar    1  UNL1        0.1393
     27 C         139.4529  140.9085  161.4250 C.ar    1  UNL1        0.0400
     28 C         139.5298  139.8116  162.4451 C.ar    1  UNL1        0.0408
     29 O         138.4537  143.1685  160.6221 O.3     1  UNL1       -0.4706
     30 C         139.6941  143.9135  160.2269 C.3     1  UNL1        0.2320
     31 C         140.7150  144.2745  161.2650 C.ar    1  UNL1        0.0212
     32 C         142.1273  143.7878  161.1291 C.ar    1  UNL1       -0.0007
     33 C         143.1481  144.1488  162.1672 C.ar    1  UNL1       -0.0002
     34 C         142.7566  144.9965  163.3411 C.ar    1  UNL1       -0.0000
     35 C         141.3444  145.4833  163.4769 C.ar    1  UNL1       -0.0002
     36 C         140.3236  145.1223  162.4389 C.ar    1  UNL1       -0.0007
@<TRIPOS>BOND
     1     1     2    2
     2     2    22    1
     3    22    23    1
     4    23    24   ar
     5    24    25   ar
     6    25    26   ar
     7    26    29    1
     8    29    30    1
     9    30    31    1
    10    31    32   ar
    11    32    33   ar
    12    33    34   ar
    13    34    35   ar
    14    35    36   ar
    15    26    27   ar
    16    27    28   ar
    17     2     3   am
    18     3    14    1
    19    14    16    1
    20    16    17   ar
    21    17    18   ar
    22    18    19   ar
    23    19    20   ar
    24    20    21   ar
    25     3     4    1
    26     4     5    2
    27     4     6    2
    28     4     7    1
    29     7     8   ar
    30     8     9   ar
    31     9    10   ar
    32    10    11    1
    33    10    12   ar
    34    12    13   ar
    35    28    23   ar
    36    21    16   ar
    37    13     7   ar
    38    36    31   ar
    39    14    15    1
@<TRIPOS>MOLECULE
*****
 36 39 0 0 0
SMALL
GASTEIGER

@<TRIPOS>ATOM
      1 O         144.2230  137.6465  167.2298 O.2     1  UNL1       -0.2224
      2 C         143.2374  138.4261  166.4108 C.2     1  UNL1        0.4453
      3 N         142.4973  139.5777  167.0241 N.am    1  UNL1       -0.0488
      4 S         141.5117  140.3574  166.2051 S.O2    1  UNL1        0.0964
      5 O         140.5088  139.2529  166.3604 O.2     1  UNL1       -0.1482
      6 O         142.5147  141.4620  166.0497 O.2     1  UNL1       -0.1482
      7 C         140.5262  141.1371  165.3861 C.ar    1  UNL1        0.1272
      8 C         140.0651  142.4863  165.8517 C.ar    1  UNL1        0.0211
      9 C         139.0795  143.2660  165.0327 C.ar    1  UNL1        0.0128
     10 C         138.5551  142.6964  163.7480 C.ar    1  UNL1        0.0578
     11 CL        137.5696  143.4761  162.9290 Cl      1  UNL1       -0.0822
     12 C         139.0162  141.3471  163.2822 C.ar    1  UNL1        0.0128
     13 C         140.0018  140.5675  164.1013 C.ar    1  UNL1        0.0211
     14 N         142.7427  139.9496  168.4564 N.pl3   1  UNL1       -0.2381
     15 H         143.4908  139.5418  168.9496 H       1  UNL1        0.1721
     16 C         141.8483  140.9429  169.1372 C.ar    1  UNL1        0.0631
     17 C         140.4891  140.5245  169.6143 C.ar    1  UNL1        0.0159
     18 C         139.5947  141.5178  170.2951 C.ar    1  UNL1        0.0013
     19 C         140.0594  142.9294  170.4987 C.ar    1  UNL1        0.0001
     20 C         141.4186  143.3477  170.0216 C.ar    1  UNL1        0.0013
     21 C         142.3131  142.3544  169.3408 C.ar    1  UNL1        0.0159
     22 O         142.9920  138.0543  164.9785 O.3     1  UNL1       -0.4080
     23 C         143.4083  138.9866  163.8796 C.ar    1  UNL1        0.1503
     24 C         142.6033  139.0637  162.6163 C.ar    1  UNL1        0.0408
     25 C         143.0197  139.9960  161.5175 C.ar    1  UNL1        0.0400
     26 C         144.2410  140.8512  161.6820 C.ar    1  UNL1        0.1393
     27 C         145.0460  140.7740  162.9453 C.ar    1  UNL1        0.0400
     28 C         144.6297  139.8417  164.0441 C.ar    1  UNL1        0.0408
     29 O         144.6573  141.7835  160.5831 O.3     1  UNL1       -0.4706
     30 C         143.8746  143.0371  160.3264 C.3     1  UNL1        0.2320
     31 C         143.2805  143.7986  161.4740 C.ar    1  UNL1        0.0212
     32 C         144.1586  144.2747  162.5930 C.ar    1  UNL1       -0.0007
     33 C         143.5644  145.0362  163.7406 C.ar    1  UNL1       -0.0002
     34 C         142.0921  145.3216  163.7692 C.ar    1  UNL1       -0.0000
     35 C         141.2140  144.8456  162.6502 C.ar    1  UNL1       -0.0002
     36 C         141.8082  144.0841  161.5026 C.ar    1  UNL1       -0.0007
@<TRIPOS>BOND
     1     1     2    2
     2     2    22    1
     3    22    23    1
     4    23    24   ar
     5    24    25   ar
     6    25    26   ar
     7    26    29    1
     8    29    30    1
     9    30    31    1
    10    31    32   ar
    11    32    33   ar
    12    33    34   ar
    13    34    35   ar
    14    35    36   ar
    15    26    27   ar
    16    27    28   ar
    17     2     3   am
    18     3    14    1
    19    14    16    1
    20    16    17   ar
    21    17    18   ar
    22    18    19   ar
    23    19    20   ar
    24    20    21   ar
    25     3     4    1
    26     4     5    2
    27     4     6    2
    28     4     7    1
    29     7     8   ar
    30     8     9   ar
    31     9    10   ar
    32    10    11    1
    33    10    12   ar
    34    12    13   ar
    35    28    23   ar
    36    21    16   ar
    37    13     7   ar
    38    36    31   ar
    39    14    15    1
@<TRIPOS>MOLECULE
*****
 36 39 0 0 0
SMALL
GASTEIGER

@<TRIPOS>ATOM
      1 O         137.5994  138.4779  167.1516 O.2     1  UNL1       -0.2224
      2 C         138.4156  139.4170  166.3137 C.2     1  UNL1        0.4453
      3 N         139.5179  140.2173  166.9419 N.am    1  UNL1       -0.0488
      4 S         140.3342  141.1563  166.1040 S.O2    1  UNL1        0.0964
      5 O         141.4249  140.1303  166.0167 O.2     1  UNL1       -0.1482
      6 O         139.2434  142.1824  166.1914 O.2     1  UNL1       -0.1482
      7 C         141.1504  142.0954  165.2662 C.ar    1  UNL1        0.1272
      8 C         142.4844  142.5730  165.7584 C.ar    1  UNL1        0.0211
      9 C         143.3007  143.5120  164.9205 C.ar    1  UNL1        0.0128
     10 C         142.7829  143.9735  163.5906 C.ar    1  UNL1        0.0578
     11 CL        143.5991  144.9125  162.7527 Cl      1  UNL1       -0.0822
     12 C         141.4488  143.4959  163.0983 C.ar    1  UNL1        0.0128
     13 C         140.6325  142.5569  163.9362 C.ar    1  UNL1        0.0211
     14 N         139.8039  140.0786  168.4078 N.pl3   1  UNL1       -0.2381
     15 H         139.3281  139.4008  168.9402 H       1  UNL1        0.1721
     16 C         140.8149  140.9726  169.0625 C.ar    1  UNL1        0.0631
     17 C         140.4284  142.3594  169.4839 C.ar    1  UNL1        0.0159
     18 C         141.4393  143.2534  170.1386 C.ar    1  UNL1        0.0013
     19 C         142.8367  142.7607  170.3721 C.ar    1  UNL1        0.0001
     20 C         143.2232  141.3739  169.9508 C.ar    1  UNL1        0.0013
     21 C         142.2123  140.4798  169.2960 C.ar    1  UNL1        0.0159
     22 O         138.1296  139.5557  164.8478 O.3     1  UNL1       -0.4080
     23 C         139.0963  139.0082  163.8399 C.ar    1  UNL1        0.1503
     24 C         139.8857  137.7716  164.1526 C.ar    1  UNL1        0.0408
     25 C         140.8523  137.2241  163.1447 C.ar    1  UNL1        0.0400
     26 C         141.0296  137.9132  161.8242 C.ar    1  UNL1        0.1393
     27 C         140.2402  139.1497  161.5115 C.ar    1  UNL1        0.0400
     28 C         139.2736  139.6972  162.5194 C.ar    1  UNL1        0.0408
     29 O         141.9963  137.3656  160.8163 O.3     1  UNL1       -0.4706
     30 C         143.4701  137.5753  160.9998 C.3     1  UNL1        0.2320
     31 C         143.9708  138.7934  161.7179 C.ar    1  UNL1        0.0212
     32 C         144.1001  140.0958  160.9852 C.ar    1  UNL1       -0.0007
     33 C         144.6008  141.3138  161.7033 C.ar    1  UNL1       -0.0002
     34 C         144.9721  141.2294  163.1542 C.ar    1  UNL1       -0.0000
     35 C         144.8427  139.9270  163.8869 C.ar    1  UNL1       -0.0002
     36 C         144.3421  138.7090  163.1688 C.ar    1  UNL1       -0.0007
@<TRIPOS>BOND
     1     1     2    2
     2     2    22    1
     3    22    23    1
     4    23    24   ar
     5    24    25   ar
     6    25    26   ar
     7    26    29    1
     8    29    30    1
     9    30    31    1
    10    31    32   ar
    11    32    33   ar
    12    33    34   ar
    13    34    35   ar
    14    35    36   ar
    15    26    27   ar
    16    27    28   ar
    17     2     3   am
    18     3    14    1
    19    14    16    1
    20    16    17   ar
    21    17    18   ar
    22    18    19   ar
    23    19    20   ar
    24    20    21   ar
    25     3     4    1
    26     4     5    2
    27     4     6    2
    28     4     7    1
    29     7     8   ar
    30     8     9   ar
    31     9    10   ar
    32    10    11    1
    33    10    12   ar
    34    12    13   ar
    35    28    23   ar
    36    21    16   ar
    37    13     7   ar
    38    36    31   ar
    39    14    15    1
@<TRIPOS>MOLECULE
*****
 36 39 0 0 0
SMALL
GASTEIGER

@<TRIPOS>ATOM
      1 O         139.6147  145.7000  160.7770 O.2     1  UNL1       -0.2224
      2 C         139.8755  144.9850  162.0695 C.2     1  UNL1        0.4453
      3 N         138.9947  143.8447  162.4868 N.am    1  UNL1       -0.0488
      4 S         139.2555  143.1296  163.7793 S.O2    1  UNL1        0.0964
      5 O         138.4208  144.1411  164.5074 O.2     1  UNL1       -0.1482
      6 O         140.0903  142.1181  163.0513 O.2     1  UNL1       -0.1482
      7 C         139.5164  142.4146  165.0719 C.ar    1  UNL1        0.1272
      8 C         140.2131  143.1246  166.1945 C.ar    1  UNL1        0.0211
      9 C         140.4740  142.4096  167.4870 C.ar    1  UNL1        0.0128
     10 C         140.0380  140.9845  167.6570 C.ar    1  UNL1        0.0578
     11 CL        140.2989  140.2694  168.9495 Cl      1  UNL1       -0.0822
     12 C         139.3412  140.2743  166.5343 C.ar    1  UNL1        0.0128
     13 C         139.0804  140.9894  165.2418 C.ar    1  UNL1        0.0211
     14 N         137.8532  143.4195  161.6116 N.pl3   1  UNL1       -0.2381
     15 H         136.9726  143.8491  161.7078 H       1  UNL1        0.1721
     16 C         138.0534  142.3399  160.5897 C.ar    1  UNL1        0.0631
     17 C         137.7799  140.9089  160.9471 C.ar    1  UNL1        0.0159
     18 C         137.9801  139.8292  159.9252 C.ar    1  UNL1        0.0013
     19 C         138.4537  140.1804  158.5460 C.ar    1  UNL1        0.0001
     20 C         138.7271  141.6113  158.1886 C.ar    1  UNL1        0.0013
     21 C         138.5270  142.6911  159.2105 C.ar    1  UNL1        0.0159
     22 O         141.0170  145.4101  162.9448 O.3     1  UNL1       -0.4080
     23 C         142.2380  144.5460  163.0575 C.ar    1  UNL1        0.1503
     24 C         142.8994  144.3525  164.3897 C.ar    1  UNL1        0.0408
     25 C         144.1203  143.4884  164.5024 C.ar    1  UNL1        0.0400
     26 C         144.6798  142.8179  163.2828 C.ar    1  UNL1        0.1393
     27 C         144.0184  143.0115  161.9505 C.ar    1  UNL1        0.0400
     28 C         142.7975  143.8755  161.8379 C.ar    1  UNL1        0.0408
     29 O         145.9008  141.9538  163.3955 O.3     1  UNL1       -0.4706
     30 C         145.8220  140.6325  164.1012 C.3     1  UNL1        0.2320
     31 C         144.5574  139.8275  164.0471 C.ar    1  UNL1        0.0212
     32 C         143.6947  139.7030  165.2679 C.ar    1  UNL1       -0.0007
     33 C         142.4302  138.8980  165.2137 C.ar    1  UNL1       -0.0002
     34 C         142.0283  138.2176  163.9387 C.ar    1  UNL1       -0.0000
     35 C         142.8909  138.3422  162.7180 C.ar    1  UNL1       -0.0002
     36 C         144.1555  139.1471  162.7721 C.ar    1  UNL1       -0.0007
@<TRIPOS>BOND
     1     1     2    2
     2     2    22    1
     3    22    23    1
     4    23    24   ar
     5    24    25   ar
     6    25    26   ar
     7    26    29    1
     8    29    30    1
     9    30    31    1
    10    31    32   ar
    11    32    33   ar
    12    33    34   ar
    13    34    35   ar
    14    35    36   ar
    15    26    27   ar
    16    27    28   ar
    17     2     3   am
    18     3    14    1
    19    14    16    1
    20    16    17   ar
    21    17    18   ar
    22    18    19   ar
    23    19    20   ar
    24    20    21   ar
    25     3     4    1
    26     4     5    2
    27     4     6    2
    28     4     7    1
    29     7     8   ar
    30     8     9   ar
    31     9    10   ar
    32    10    11    1
    33    10    12   ar
    34    12    13   ar
    35    28    23   ar
    36    21    16   ar
    37    13     7   ar
    38    36    31   ar
    39    14    15    1
@<TRIPOS>MOLECULE
*****
 36 39 0 0 0
SMALL
GASTEIGER

@<TRIPOS>ATOM
      1 O         145.5146  144.2469  166.4772 O.2     1  UNL1       -0.2224
      2 C         144.5500  143.3302  165.7850 C.2     1  UNL1        0.4453
      3 N         143.6014  142.4928  166.5906 N.am    1  UNL1       -0.0488
      4 S         142.6368  141.5761  165.8984 S.O2    1  UNL1        0.0964
      5 O         143.7106  140.5354  165.7804 O.2     1  UNL1       -0.1482
      6 O         141.5631  142.6168  166.0164 O.2     1  UNL1       -0.1482
      7 C         141.6722  140.6594  165.2062 C.ar    1  UNL1        0.1272
      8 C         140.6607  139.8928  166.0057 C.ar    1  UNL1        0.0211
      9 C         139.6961  138.9761  165.3135 C.ar    1  UNL1        0.0128
     10 C         139.7430  138.8259  163.8218 C.ar    1  UNL1        0.0578
     11 CL        138.7784  137.9092  163.1296 Cl      1  UNL1       -0.0822
     12 C         140.7546  139.5925  163.0222 C.ar    1  UNL1        0.0128
     13 C         141.7192  140.5092  163.7144 C.ar    1  UNL1        0.0211
     14 N         143.6174  142.5722  168.0884 N.pl3   1  UNL1       -0.2381
     15 H         144.3054  143.1078  168.5456 H       1  UNL1        0.1721
     16 C         142.5851  141.8357  168.8895 C.ar    1  UNL1        0.0631
     17 C         141.3603  142.5528  169.3750 C.ar    1  UNL1        0.0159
     18 C         140.3281  141.8163  170.1761 C.ar    1  UNL1        0.0013
     19 C         140.5205  140.3626  170.4918 C.ar    1  UNL1        0.0001
     20 C         141.7452  139.6454  170.0064 C.ar    1  UNL1        0.0013
     21 C         142.7776  140.3819  169.2052 C.ar    1  UNL1        0.0159
     22 O         144.5340  143.2508  164.2872 O.3     1  UNL1       -0.4080
     23 C         143.4033  143.8643  163.5156 C.ar    1  UNL1        0.1503
     24 C         142.6587  145.0371  164.0812 C.ar    1  UNL1        0.0408
     25 C         141.5281  145.6505  163.3097 C.ar    1  UNL1        0.0400
     26 C         141.1421  145.0911  161.9725 C.ar    1  UNL1        0.1393
     27 C         141.8867  143.9183  161.4069 C.ar    1  UNL1        0.0400
     28 C         143.0173  143.3049  162.1784 C.ar    1  UNL1        0.0408
     29 O         140.0114  145.7046  161.2009 O.3     1  UNL1       -0.4706
     30 C         138.5935  145.4527  161.6204 C.3     1  UNL1        0.2320
     31 C         138.2531  144.2274  162.4159 C.ar    1  UNL1        0.0212
     32 C         138.0410  142.9160  161.7194 C.ar    1  UNL1       -0.0007
     33 C         137.7006  141.6907  162.5149 C.ar    1  UNL1       -0.0002
     34 C         137.5722  141.7769  164.0069 C.ar    1  UNL1       -0.0000
     35 C         137.7843  143.0883  164.7034 C.ar    1  UNL1       -0.0002
     36 C         138.1247  144.3136  163.9079 C.ar    1  UNL1       -0.0007
@<TRIPOS>BOND
     1     1     2    2
     2     2    22    1
     3    22    23    1
     4    23    24   ar
     5    24    25   ar
     6    25    26   ar
     7    26    29    1
     8    29    30    1
     9    30    31    1
    10    31    32   ar
    11    32    33   ar
    12    33    34   ar
    13    34    35   ar
    14    35    36   ar
    15    26    27   ar
    16    27    28   ar
    17     2     3   am
    18     3    14    1
    19    14    16    1
    20    16    17   ar
    21    17    18   ar
    22    18    19   ar
    23    19    20   ar
    24    20    21   ar
    25     3     4    1
    26     4     5    2
    27     4     6    2
    28     4     7    1
    29     7     8   ar
    30     8     9   ar
    31     9    10   ar
    32    10    11    1
    33    10    12   ar
    34    12    13   ar
    35    28    23   ar
    36    21    16   ar
    37    13     7   ar
    38    36    31   ar
    39    14    15    1
@<TRIPOS>MOLECULE
*****
 36 39 0 0 0
SMALL
GASTEIGER

@<TRIPOS>ATOM
      1 O         138.2058  139.7828  158.3883 O.2     1  UNL1       -0.2224
      2 C         138.8587  139.5590  159.7201 C.2     1  UNL1        0.4453
      3 N         140.3492  139.4160  159.8100 N.am    1  UNL1       -0.0488
      4 S         141.0022  139.1922  161.1418 S.O2    1  UNL1        0.0964
      5 O         141.4033  140.6368  161.1879 O.2     1  UNL1       -0.1482
      6 O         140.6010  137.7476  161.0957 O.2     1  UNL1       -0.1482
      7 C         141.6551  138.9684  162.4736 C.ar    1  UNL1        0.1272
      8 C         143.1112  139.2786  162.6566 C.ar    1  UNL1        0.0211
      9 C         143.7641  139.0548  163.9883 C.ar    1  UNL1        0.0128
     10 C         142.9609  138.5208  165.1371 C.ar    1  UNL1        0.0578
     11 CL        143.6138  138.2970  166.4689 Cl      1  UNL1       -0.0822
     12 C         141.5047  138.2106  164.9542 C.ar    1  UNL1        0.0128
     13 C         140.8518  138.4344  163.6224 C.ar    1  UNL1        0.0211
     14 N         141.1867  139.4968  158.5683 N.pl3   1  UNL1       -0.2381
     15 H         141.5816  140.3565  158.2959 H       1  UNL1        0.1721
     16 C         141.4227  138.2677  157.7415 C.ar    1  UNL1        0.0631
     17 C         140.4246  137.8631  156.6973 C.ar    1  UNL1        0.0159
     18 C         140.6606  136.6340  155.8706 C.ar    1  UNL1        0.0013
     19 C         141.8945  135.8093  156.0880 C.ar    1  UNL1        0.0001
     20 C         142.8925  136.2138  157.1322 C.ar    1  UNL1        0.0013
     21 C         142.6566  137.4430  157.9590 C.ar    1  UNL1        0.0159
     22 O         138.0212  139.4783  160.9618 O.3     1  UNL1       -0.4080
     23 C         137.9343  140.6567  161.8858 C.ar    1  UNL1        0.1503
     24 C         137.7141  140.4438  163.3542 C.ar    1  UNL1        0.0408
     25 C         137.6272  141.6223  164.2781 C.ar    1  UNL1        0.0400
     26 C         137.7604  143.0136  163.7337 C.ar    1  UNL1        0.1393
     27 C         137.9805  143.2265  162.2653 C.ar    1  UNL1        0.0400
     28 C         138.0675  142.0481  161.3414 C.ar    1  UNL1        0.0408
     29 O         137.6734  144.1921  164.6577 O.3     1  UNL1       -0.4706
     30 C         138.9189  144.7523  165.2780 C.3     1  UNL1        0.2320
     31 C         140.1562  143.9090  165.3690 C.ar    1  UNL1        0.0212
     32 C         140.3097  142.9209  166.4871 C.ar    1  UNL1       -0.0007
     33 C         141.5468  142.0776  166.5781 C.ar    1  UNL1       -0.0002
     34 C         142.6305  142.2225  165.5511 C.ar    1  UNL1       -0.0000
     35 C         142.4770  143.2106  164.4330 C.ar    1  UNL1       -0.0002
     36 C         141.2398  144.0538  164.3420 C.ar    1  UNL1       -0.0007
@<TRIPOS>BOND
     1     1     2    2
     2     2    22    1
     3    22    23    1
     4    23    24   ar
     5    24    25   ar
     6    25    26   ar
     7    26    29    1
     8    29    30    1
     9    30    31    1
    10    31    32   ar
    11    32    33   ar
    12    33    34   ar
    13    34    35   ar
    14    35    36   ar
    15    26    27   ar
    16    27    28   ar
    17     2     3   am
    18     3    14    1
    19    14    16    1
    20    16    17   ar
    21    17    18   ar
    22    18    19   ar
    23    19    20   ar
    24    20    21   ar
    25     3     4    1
    26     4     5    2
    27     4     6    2
    28     4     7    1
    29     7     8   ar
    30     8     9   ar
    31     9    10   ar
    32    10    11    1
    33    10    12   ar
    34    12    13   ar
    35    28    23   ar
    36    21    16   ar
    37    13     7   ar
    38    36    31   ar
    39    14    15    1
@<TRIPOS>MOLECULE
*****
 36 39 0 0 0
SMALL
GASTEIGER

@<TRIPOS>ATOM
      1 O         143.7408  137.7516  161.1368 O.2     1  UNL1       -0.2224
      2 C         143.5048  138.3016  162.5122 C.2     1  UNL1        0.4453
      3 N         142.2057  138.0358  163.2135 N.am    1  UNL1       -0.0488
      4 S         141.9697  138.5858  164.5890 S.O2    1  UNL1        0.0964
      5 O         141.3780  139.8276  163.9909 O.2     1  UNL1       -0.1482
      6 O         142.5615  137.3440  165.1870 O.2     1  UNL1       -0.1482
      7 C         141.7337  139.1358  165.9644 C.ar    1  UNL1        0.1272
      8 C         142.8443  139.1365  166.9726 C.ar    1  UNL1        0.0211
      9 C         142.6084  139.6864  168.3480 C.ar    1  UNL1        0.0128
     10 C         141.2618  140.2357  168.7153 C.ar    1  UNL1        0.0578
     11 CL        141.0258  140.7857  170.0907 Cl      1  UNL1       -0.0822
     12 C         140.1511  140.2351  167.7070 C.ar    1  UNL1        0.0128
     13 C         140.3871  139.6851  166.3316 C.ar    1  UNL1        0.0211
     14 N         141.1427  137.2200  162.5394 N.pl3   1  UNL1       -0.2381
     15 H         141.1823  136.2369  162.5715 H       1  UNL1        0.1721
     16 C         140.0195  137.9023  161.8164 C.ar    1  UNL1        0.0631
     17 C         138.6523  137.9525  162.4317 C.ar    1  UNL1        0.0159
     18 C         137.5291  138.6347  161.7087 C.ar    1  UNL1        0.0013
     19 C         137.7728  139.2668  160.3704 C.ar    1  UNL1        0.0001
     20 C         139.1399  139.2166  159.7551 C.ar    1  UNL1        0.0013
     21 C         140.2632  138.5343  160.4781 C.ar    1  UNL1        0.0159
     22 O         144.5678  139.1174  163.1863 O.3     1  UNL1       -0.4080
     23 C         144.4452  140.6114  163.2407 C.ar    1  UNL1        0.1503
     24 C         144.0915  141.3805  162.0024 C.ar    1  UNL1        0.0408
     25 C         143.9688  142.8744  162.0569 C.ar    1  UNL1        0.0400
     26 C         144.1998  143.5993  163.3496 C.ar    1  UNL1        0.1393
     27 C         144.5535  142.8302  164.5879 C.ar    1  UNL1        0.0400
     28 C         144.6762  141.3363  164.5335 C.ar    1  UNL1        0.0408
     29 O         144.0771  145.0933  163.4040 O.3     1  UNL1       -0.4706
     30 C         142.8383  145.7241  163.9674 C.3     1  UNL1        0.2320
     31 C         141.4993  145.0916  163.7282 C.ar    1  UNL1        0.0212
     32 C         140.6540  145.5392  162.5728 C.ar    1  UNL1       -0.0007
     33 C         139.3152  144.9066  162.3337 C.ar    1  UNL1       -0.0002
     34 C         138.8216  143.8264  163.2500 C.ar    1  UNL1       -0.0000
     35 C         139.6669  143.3788  164.4054 C.ar    1  UNL1       -0.0002
     36 C         141.0058  144.0114  164.6445 C.ar    1  UNL1       -0.0007
@<TRIPOS>BOND
     1     1     2    2
     2     2    22    1
     3    22    23    1
     4    23    24   ar
     5    24    25   ar
     6    25    26   ar
     7    26    29    1
     8    29    30    1
     9    30    31    1
    10    31    32   ar
    11    32    33   ar
    12    33    34   ar
    13    34    35   ar
    14    35    36   ar
    15    26    27   ar
    16    27    28   ar
    17     2     3   am
    18     3    14    1
    19    14    16    1
    20    16    17   ar
    21    17    18   ar
    22    18    19   ar
    23    19    20   ar
    24    20    21   ar
    25     3     4    1
    26     4     5    2
    27     4     6    2
    28     4     7    1
    29     7     8   ar
    30     8     9   ar
    31     9    10   ar
    32    10    11    1
    33    10    12   ar
    34    12    13   ar
    35    28    23   ar
    36    21    16   ar
    37    13     7   ar
    38    36    31   ar
    39    14    15    1
