@<TRIPOS>MOLECULE
*****
 25 28 0 0 0
SMALL
GASTEIGER

@<TRIPOS>ATOM
      1 C         140.9611  138.5264  162.3197 C.ar    1  UNL1        0.1917
      2 N         139.7639  137.6516  162.0930 N.ar    1  UNL1       -0.1268
      3 N         138.9538  137.6384  163.3553 N.ar    1  UNL1       -0.1316
      4 C         139.6503  138.5051  164.3622 C.ar    1  UNL1        0.1615
      5 N         140.8909  139.0539  163.7222 N.ar    1  UNL1       -0.2940
      6 C         141.7963  139.9630  164.4991 C.3     1  UNL1        0.1302
      7 C         141.4612  140.3234  165.9161 C.3     1  UNL1        0.1186
      8 N         140.2206  139.7746  166.5561 N.am    1  UNL1       -0.2688
      9 C         139.8854  140.1349  167.9731 C.2     1  UNL1        0.2494
     10 O         138.6448  139.5861  168.6131 O.2     1  UNL1       -0.2699
     11 C         139.3151  138.8654  165.7792 C.3     1  UNL1        0.1343
     12 C         138.0745  138.3166  166.4192 C.3     1  UNL1        0.0298
     13 C         140.7909  141.0440  168.7500 C.ar    1  UNL1        0.0537
     14 C         142.1096  140.5373  169.2541 C.ar    1  UNL1        0.0068
     15 C         143.0151  141.4465  170.0310 C.ar    1  UNL1        0.0298
     16 C         142.6018  142.8624  170.3038 C.ar    1  UNL1        0.1401
     17 F         143.5072  143.7716  171.0807 F       1  UNL1       -0.2042
     18 C         141.2830  143.3691  169.7997 C.ar    1  UNL1        0.0298
     19 C         140.3776  142.4600  169.0228 C.ar    1  UNL1        0.0068
     20 C         143.6203  140.6486  158.2817 C.3     1  UNL1        0.0744
     21 C         143.2615  139.7974  159.4635 C.ar    1  UNL1        0.1481
     22 N         144.1352  138.7559  160.0976 N.ar    1  UNL1       -0.1929
     23 S         143.3798  138.1530  161.2447 S.2     1  UNL1        0.0369
     24 C         142.0393  138.8219  161.3196 C.ar    1  UNL1        0.1652
     25 N         141.9662  139.8382  160.2188 N.ar    1  UNL1       -0.2190
@<TRIPOS>BOND
     1    20    21    1
     2    21    22   ar
     3    22    23   ar
     4    23    24   ar
     5    24     1    1
     6     1     2   ar
     7     2     3   ar
     8     3     4   ar
     9     4     5   ar
    10     5     6    1
    11     6     7    1
    12     7     8    1
    13     8     9   am
    14     9    10    2
    15     9    13    1
    16    13    14   ar
    17    14    15   ar
    18    15    16   ar
    19    16    17    1
    20    16    18   ar
    21    18    19   ar
    22     8    11    1
    23    11    12    1
    24    24    25   ar
    25    25    21   ar
    26     5     1   ar
    27    19    13   ar
    28    11     4    1
@<TRIPOS>MOLECULE
*****
 25 28 0 0 0
SMALL
GASTEIGER

@<TRIPOS>ATOM
      1 C         138.8242  142.4928  162.0790 C.ar    1  UNL1        0.1917
      2 N         137.8328  141.4244  161.7248 N.ar    1  UNL1       -0.1268
      3 N         137.6539  140.5420  162.9245 N.ar    1  UNL1       -0.1316
      4 C         138.5347  141.0651  164.0202 C.ar    1  UNL1        0.1615
      5 N         139.2580  142.2708  163.4976 N.ar    1  UNL1       -0.2940
      6 C         140.2182  143.0108  164.3811 C.3     1  UNL1        0.1302
      7 C         140.4551  142.5450  165.7872 C.3     1  UNL1        0.1186
      8 N         139.7318  141.3393  166.3097 N.am    1  UNL1       -0.2688
      9 C         139.9687  140.8735  167.7157 C.2     1  UNL1        0.2494
     10 O         139.2454  139.6678  168.2383 O.2     1  UNL1       -0.2699
     11 C         138.7716  140.5993  165.4262 C.3     1  UNL1        0.1343
     12 C         138.0483  139.3936  165.9488 C.3     1  UNL1        0.0298
     13 C         140.9288  141.6135  168.5992 C.ar    1  UNL1        0.0537
     14 C         142.3462  141.1399  168.7288 C.ar    1  UNL1        0.0068
     15 C         143.3064  141.8800  169.6123 C.ar    1  UNL1        0.0298
     16 C         142.8492  143.0935  170.3661 C.ar    1  UNL1        0.1401
     17 F         143.8093  143.8335  171.2496 F       1  UNL1       -0.2042
     18 C         141.4318  143.5670  170.2365 C.ar    1  UNL1        0.0298
     19 C         140.4716  142.8271  169.3531 C.ar    1  UNL1        0.0068
     20 C         140.3277  145.1532  157.7728 C.3     1  UNL1        0.0744
     21 C         139.9896  144.8134  159.1942 C.ar    1  UNL1        0.1481
     22 N         140.0674  145.7465  160.3661 N.ar    1  UNL1       -0.1929
     23 S         139.6403  144.9907  161.5895 S.2     1  UNL1        0.0369
     24 C         139.2986  143.5907  161.1735 C.ar    1  UNL1        0.1652
     25 N         139.5145  143.4811  159.6932 N.ar    1  UNL1       -0.2190
@<TRIPOS>BOND
     1    20    21    1
     2    21    22   ar
     3    22    23   ar
     4    23    24   ar
     5    24     1    1
     6     1     2   ar
     7     2     3   ar
     8     3     4   ar
     9     4     5   ar
    10     5     6    1
    11     6     7    1
    12     7     8    1
    13     8     9   am
    14     9    10    2
    15     9    13    1
    16    13    14   ar
    17    14    15   ar
    18    15    16   ar
    19    16    17    1
    20    16    18   ar
    21    18    19   ar
    22     8    11    1
    23    11    12    1
    24    24    25   ar
    25    25    21   ar
    26     5     1   ar
    27    19    13   ar
    28    11     4    1
@<TRIPOS>MOLECULE
*****
 25 28 0 0 0
SMALL
GASTEIGER

@<TRIPOS>ATOM
      1 C         143.2378  141.3638  161.9192 C.ar    1  UNL1        0.1917
      2 N         144.1055  140.1942  161.5601 N.ar    1  UNL1       -0.1268
      3 N         144.2960  139.3625  162.7938 N.ar    1  UNL1       -0.1316
      4 C         143.5462  140.0181  163.9153 C.ar    1  UNL1        0.1615
      5 N         142.8921  141.2551  163.3748 N.ar    1  UNL1       -0.2940
      6 C         142.0663  142.1225  164.2778 C.3     1  UNL1        0.1302
      7 C         141.8945  141.7530  165.7215 C.3     1  UNL1        0.1186
      8 N         142.5486  140.5161  166.2620 N.am    1  UNL1       -0.2688
      9 C         142.3768  140.1466  167.7055 C.2     1  UNL1        0.2494
     10 O         143.0309  138.9096  168.2461 O.2     1  UNL1       -0.2699
     11 C         143.3744  139.6486  165.3588 C.3     1  UNL1        0.1343
     12 C         144.0285  138.4117  165.8994 C.3     1  UNL1        0.0298
     13 C         141.5510  141.0140  168.6086 C.ar    1  UNL1        0.0537
     14 C         140.1922  140.5574  169.0504 C.ar    1  UNL1        0.0068
     15 C         139.3664  141.4249  169.9535 C.ar    1  UNL1        0.0298
     16 C         139.8993  142.7490  170.4147 C.ar    1  UNL1        0.1401
     17 F         139.0735  143.6165  171.3178 F       1  UNL1       -0.2042
     18 C         141.2581  143.2056  169.9729 C.ar    1  UNL1        0.0298
     19 C         142.0840  142.3381  169.0699 C.ar    1  UNL1        0.0068
     20 C         140.4250  145.2510  159.7150 C.3     1  UNL1        0.0744
     21 C         141.5007  144.2382  159.9733 C.ar    1  UNL1        0.1481
     22 N         142.7198  144.0119  159.1290 N.ar    1  UNL1       -0.1929
     23 S         143.5189  142.9076  159.7552 S.2     1  UNL1        0.0369
     24 C         142.7937  142.4514  160.9865 C.ar    1  UNL1        0.1652
     25 N         141.5464  143.2737  161.1213 N.ar    1  UNL1       -0.2190
@<TRIPOS>BOND
     1    20    21    1
     2    21    22   ar
     3    22    23   ar
     4    23    24   ar
     5    24     1    1
     6     1     2   ar
     7     2     3   ar
     8     3     4   ar
     9     4     5   ar
    10     5     6    1
    11     6     7    1
    12     7     8    1
    13     8     9   am
    14     9    10    2
    15     9    13    1
    16    13    14   ar
    17    14    15   ar
    18    15    16   ar
    19    16    17    1
    20    16    18   ar
    21    18    19   ar
    22     8    11    1
    23    11    12    1
    24    24    25   ar
    25    25    21   ar
    26     5     1   ar
    27    19    13   ar
    28    11     4    1
@<TRIPOS>MOLECULE
*****
 25 28 0 0 0
SMALL
GASTEIGER

@<TRIPOS>ATOM
      1 C         140.1420  139.6087  162.1065 C.ar    1  UNL1        0.1917
      2 N         139.0132  138.6365  161.9310 N.ar    1  UNL1       -0.1268
      3 N         138.4325  138.3515  163.2844 N.ar    1  UNL1       -0.1316
      4 C         139.2022  139.1476  164.2962 C.ar    1  UNL1        0.1615
      5 N         140.2588  139.9246  163.5682 N.ar    1  UNL1       -0.2940
      6 C         141.1907  140.8193  164.3303 C.3     1  UNL1        0.1302
      7 C         141.0661  140.9371  165.8205 C.3     1  UNL1        0.1186
      8 N         140.0096  140.1601  166.5485 N.am    1  UNL1       -0.2688
      9 C         139.8850  140.2778  168.0387 C.2     1  UNL1        0.2494
     10 O         138.8284  139.5008  168.7667 O.2     1  UNL1       -0.2699
     11 C         139.0776  139.2653  165.7863 C.3     1  UNL1        0.1343
     12 C         138.0211  138.4883  166.5143 C.3     1  UNL1        0.0298
     13 C         140.8169  141.1726  168.8008 C.ar    1  UNL1        0.0537
     14 C         140.3849  142.5586  169.1779 C.ar    1  UNL1        0.0068
     15 C         141.3169  143.4534  169.9401 C.ar    1  UNL1        0.0298
     16 C         142.6809  142.9620  170.3251 C.ar    1  UNL1        0.1401
     17 F         143.6129  143.8568  171.0873 F       1  UNL1       -0.2042
     18 C         143.1129  141.5760  169.9480 C.ar    1  UNL1        0.0298
     19 C         142.1809  140.6813  169.1858 C.ar    1  UNL1        0.0068
     20 C         143.6907  140.0060  158.2169 C.3     1  UNL1        0.0744
     21 C         142.6340  140.3496  159.2244 C.ar    1  UNL1        0.1481
     22 N         142.0210  141.7027  159.4325 N.ar    1  UNL1       -0.1929
     23 S         141.0128  141.5898  160.5375 S.2     1  UNL1        0.0369
     24 C         141.0028  140.1670  161.0123 C.ar    1  UNL1        0.1652
     25 N         142.0047  139.4005  160.2008 N.ar    1  UNL1       -0.2190
@<TRIPOS>BOND
     1    20    21    1
     2    21    22   ar
     3    22    23   ar
     4    23    24   ar
     5    24     1    1
     6     1     2   ar
     7     2     3   ar
     8     3     4   ar
     9     4     5   ar
    10     5     6    1
    11     6     7    1
    12     7     8    1
    13     8     9   am
    14     9    10    2
    15     9    13    1
    16    13    14   ar
    17    14    15   ar
    18    15    16   ar
    19    16    17    1
    20    16    18   ar
    21    18    19   ar
    22     8    11    1
    23    11    12    1
    24    24    25   ar
    25    25    21   ar
    26     5     1   ar
    27    19    13   ar
    28    11     4    1
@<TRIPOS>MOLECULE
*****
 25 28 0 0 0
SMALL
GASTEIGER

@<TRIPOS>ATOM
      1 C         142.8761  143.4006  158.7062 C.ar    1  UNL1        0.1917
      2 N         142.6513  144.7877  158.1812 N.ar    1  UNL1       -0.1268
      3 N         141.7681  145.5133  159.1525 N.ar    1  UNL1       -0.1316
      4 C         141.4471  144.5747  160.2777 C.ar    1  UNL1        0.1615
      5 N         142.1319  143.2690  160.0019 N.ar    1  UNL1       -0.2940
      6 C         141.9894  142.1290  160.9661 C.3     1  UNL1        0.1302
      7 C         141.1619  142.2946  162.2063 C.3     1  UNL1        0.1186
      8 N         140.4771  143.6003  162.4822 N.am    1  UNL1       -0.2688
      9 C         139.6497  143.7659  163.7223 C.2     1  UNL1        0.2494
     10 O         138.9649  145.0717  163.9981 O.2     1  UNL1       -0.2699
     11 C         140.6197  144.7404  161.5178 C.3     1  UNL1        0.1343
     12 C         139.9349  146.0461  161.7937 C.3     1  UNL1        0.0298
     13 C         139.5072  142.6259  164.6866 C.ar    1  UNL1        0.0537
     14 C         140.3762  142.5631  165.9076 C.ar    1  UNL1        0.0068
     15 C         140.2336  141.4230  166.8719 C.ar    1  UNL1        0.0298
     16 C         139.2220  140.3456  166.6151 C.ar    1  UNL1        0.1401
     17 F         139.0794  139.2055  167.5794 F       1  UNL1       -0.2042
     18 C         138.3530  140.4083  165.3941 C.ar    1  UNL1        0.0298
     19 C         138.4955  141.5484  164.4298 C.ar    1  UNL1        0.0068
     20 C         146.2464  140.9307  155.4779 C.3     1  UNL1        0.0744
     21 C         145.2497  141.1974  156.5667 C.ar    1  UNL1        0.1481
     22 N         144.6885  140.1810  157.5165 N.ar    1  UNL1       -0.1929
     23 S         143.7310  140.8827  158.4336 S.2     1  UNL1        0.0369
     24 C         143.7005  142.3326  158.0505 C.ar    1  UNL1        0.1652
     25 N         144.6390  142.5271  156.8967 N.ar    1  UNL1       -0.2190
@<TRIPOS>BOND
     1    20    21    1
     2    21    22   ar
     3    22    23   ar
     4    23    24   ar
     5    24     1    1
     6     1     2   ar
     7     2     3   ar
     8     3     4   ar
     9     4     5   ar
    10     5     6    1
    11     6     7    1
    12     7     8    1
    13     8     9   am
    14     9    10    2
    15     9    13    1
    16    13    14   ar
    17    14    15   ar
    18    15    16   ar
    19    16    17    1
    20    16    18   ar
    21    18    19   ar
    22     8    11    1
    23    11    12    1
    24    24    25   ar
    25    25    21   ar
    26     5     1   ar
    27    19    13   ar
    28    11     4    1
@<TRIPOS>MOLECULE
*****
 25 28 0 0 0
SMALL
GASTEIGER

@<TRIPOS>ATOM
      1 C         140.9929  140.4205  161.5651 C.ar    1  UNL1        0.1917
      2 N         141.9990  139.4037  161.1135 N.ar    1  UNL1       -0.1268
      3 N         142.7051  138.8791  162.3284 N.ar    1  UNL1       -0.1316
      4 C         142.1355  139.5716  163.5309 C.ar    1  UNL1        0.1615
      5 N         141.0773  140.5243  163.0591 N.ar    1  UNL1       -0.2940
      6 C         140.3273  141.3632  164.0509 C.3     1  UNL1        0.1302
      7 C         140.6355  141.2495  165.5145 C.3     1  UNL1        0.1186
      8 N         141.6937  140.2968  165.9863 N.am    1  UNL1       -0.2688
      9 C         142.0019  140.1830  167.4498 C.2     1  UNL1        0.2494
     10 O         143.0601  139.2303  167.9216 O.2     1  UNL1       -0.2699
     11 C         142.4437  139.4578  164.9944 C.3     1  UNL1        0.1343
     12 C         143.5019  138.5051  165.4662 C.3     1  UNL1        0.0298
     13 C         141.2519  141.0219  168.4416 C.ar    1  UNL1        0.0537
     14 C         140.0260  140.4753  169.1112 C.ar    1  UNL1        0.0068
     15 C         139.2760  141.3143  170.1030 C.ar    1  UNL1        0.0298
     16 C         139.7519  142.6998  170.4252 C.ar    1  UNL1        0.1401
     17 F         139.0019  143.5388  171.4171 F       1  UNL1       -0.2042
     18 C         140.9778  143.2464  169.7556 C.ar    1  UNL1        0.0298
     19 C         141.7278  142.4075  168.7639 C.ar    1  UNL1        0.0068
     20 C         137.6453  141.6899  157.6840 C.3     1  UNL1        0.0744
     21 C         138.5266  141.7807  158.8944 C.ar    1  UNL1        0.1481
     22 N         138.7492  143.0042  159.7332 N.ar    1  UNL1       -0.1929
     23 S         139.7002  142.6436  160.8357 S.2     1  UNL1        0.0369
     24 C         140.0653  141.1972  160.6784 C.ar    1  UNL1        0.1652
     25 N         139.3400  140.6639  159.4786 N.ar    1  UNL1       -0.2190
@<TRIPOS>BOND
     1    20    21    1
     2    21    22   ar
     3    22    23   ar
     4    23    24   ar
     5    24     1    1
     6     1     2   ar
     7     2     3   ar
     8     3     4   ar
     9     4     5   ar
    10     5     6    1
    11     6     7    1
    12     7     8    1
    13     8     9   am
    14     9    10    2
    15     9    13    1
    16    13    14   ar
    17    14    15   ar
    18    15    16   ar
    19    16    17    1
    20    16    18   ar
    21    18    19   ar
    22     8    11    1
    23    11    12    1
    24    24    25   ar
    25    25    21   ar
    26     5     1   ar
    27    19    13   ar
    28    11     4    1
@<TRIPOS>MOLECULE
*****
 25 28 0 0 0
SMALL
GASTEIGER

@<TRIPOS>ATOM
      1 C         139.5901  143.2663  159.8036 C.ar    1  UNL1        0.1917
      2 N         139.7567  144.7485  159.6449 N.ar    1  UNL1       -0.1268
      3 N         140.7070  145.2241  160.7036 N.ar    1  UNL1       -0.1316
      4 C         141.1278  144.0358  161.5165 C.ar    1  UNL1        0.1615
      5 N         140.4375  142.8258  160.9603 N.ar    1  UNL1       -0.2940
      6 C         140.6698  141.4792  161.5789 C.3     1  UNL1        0.1302
      7 C         141.5924  141.3426  162.7538 C.3     1  UNL1        0.1186
      8 N         142.2827  142.5526  163.3100 N.am    1  UNL1       -0.2688
      9 C         143.2052  142.4161  164.4848 C.2     1  UNL1        0.2494
     10 O         143.8955  143.6261  165.0410 O.2     1  UNL1       -0.2699
     11 C         142.0504  143.8993  162.6913 C.3     1  UNL1        0.1343
     12 C         142.7406  145.1093  163.2475 C.3     1  UNL1        0.0298
     13 C         143.4375  141.0695  165.1034 C.ar    1  UNL1        0.0537
     14 C         144.4701  140.1472  164.5265 C.ar    1  UNL1        0.0068
     15 C         144.7024  138.8005  165.1452 C.ar    1  UNL1        0.0298
     16 C         143.9020  138.3763  166.3407 C.ar    1  UNL1        0.1401
     17 F         144.1342  137.0297  166.9594 F       1  UNL1       -0.2042
     18 C         142.8693  139.2987  166.9176 C.ar    1  UNL1        0.0298
     19 C         142.6370  140.6452  166.2990 C.ar    1  UNL1        0.0068
     20 C         136.4325  141.5419  155.9388 C.3     1  UNL1        0.0744
     21 C         137.2762  141.5875  157.1782 C.ar    1  UNL1        0.1481
     22 N         137.5244  140.4452  158.1183 N.ar    1  UNL1       -0.1929
     23 S         138.4214  140.9352  159.2163 S.2     1  UNL1        0.0369
     24 C         138.7276  142.3801  158.9547 C.ar    1  UNL1        0.1652
     25 N         138.0198  142.7833  157.6951 N.ar    1  UNL1       -0.2190
@<TRIPOS>BOND
     1    20    21    1
     2    21    22   ar
     3    22    23   ar
     4    23    24   ar
     5    24     1    1
     6     1     2   ar
     7     2     3   ar
     8     3     4   ar
     9     4     5   ar
    10     5     6    1
    11     6     7    1
    12     7     8    1
    13     8     9   am
    14     9    10    2
    15     9    13    1
    16    13    14   ar
    17    14    15   ar
    18    15    16   ar
    19    16    17    1
    20    16    18   ar
    21    18    19   ar
    22     8    11    1
    23    11    12    1
    24    24    25   ar
    25    25    21   ar
    26     5     1   ar
    27    19    13   ar
    28    11     4    1
@<TRIPOS>MOLECULE
*****
 25 28 0 0 0
SMALL
GASTEIGER

@<TRIPOS>ATOM
      1 C         141.2199  141.2612  167.4382 C.ar    1  UNL1        0.1917
      2 N         142.4173  141.5618  168.2901 N.ar    1  UNL1       -0.1268
      3 N         143.3708  142.3848  167.4756 N.ar    1  UNL1       -0.1316
      4 C         142.7627  142.5929  166.1203 C.ar    1  UNL1        0.1615
      5 N         141.4333  141.8985  166.0972 N.ar    1  UNL1       -0.2940
      6 C         140.5889  141.9362  164.8580 C.3     1  UNL1        0.1302
      7 C         141.0739  142.6683  163.6419 C.3     1  UNL1        0.1186
      8 N         142.4033  143.3627  163.6650 N.am    1  UNL1       -0.2688
      9 C         142.8883  144.0948  162.4490 C.2     1  UNL1        0.2494
     10 O         144.2177  144.7892  162.4721 O.2     1  UNL1       -0.2699
     11 C         143.2477  143.3250  164.9043 C.3     1  UNL1        0.1343
     12 C         144.5771  144.0194  164.9274 C.3     1  UNL1        0.0298
     13 C         142.0439  144.1325  161.2098 C.ar    1  UNL1        0.0537
     14 C         141.0582  145.2449  161.0074 C.ar    1  UNL1        0.0068
     15 C         140.2138  145.2825  159.7682 C.ar    1  UNL1        0.0298
     16 C         140.3552  144.2078  158.7314 C.ar    1  UNL1        0.1401
     17 F         139.5108  144.2454  157.4922 F       1  UNL1       -0.2042
     18 C         141.3409  143.0954  158.9338 C.ar    1  UNL1        0.0298
     19 C         142.1853  143.0577  160.1730 C.ar    1  UNL1        0.0068
     20 C         137.1061  137.9528  167.3320 C.3     1  UNL1        0.0744
     21 C         138.1288  138.9427  167.8053 C.ar    1  UNL1        0.1481
     22 N         138.2167  139.5289  169.1833 N.ar    1  UNL1       -0.1929
     23 S         139.3854  140.4688  169.2135 S.2     1  UNL1        0.0369
     24 C         140.0197  140.4635  167.8542 C.ar    1  UNL1        0.1652
     25 N         139.2430  139.5203  166.9839 N.ar    1  UNL1       -0.2190
@<TRIPOS>BOND
     1    20    21    1
     2    21    22   ar
     3    22    23   ar
     4    23    24   ar
     5    24     1    1
     6     1     2   ar
     7     2     3   ar
     8     3     4   ar
     9     4     5   ar
    10     5     6    1
    11     6     7    1
    12     7     8    1
    13     8     9   am
    14     9    10    2
    15     9    13    1
    16    13    14   ar
    17    14    15   ar
    18    15    16   ar
    19    16    17    1
    20    16    18   ar
    21    18    19   ar
    22     8    11    1
    23    11    12    1
    24    24    25   ar
    25    25    21   ar
    26     5     1   ar
    27    19    13   ar
    28    11     4    1
@<TRIPOS>MOLECULE
*****
 25 28 0 0 0
SMALL
GASTEIGER

@<TRIPOS>ATOM
      1 C         142.8641  138.3190  157.6245 C.ar    1  UNL1        0.1917
      2 N         144.0023  139.1859  157.1739 N.ar    1  UNL1       -0.1268
      3 N         144.2539  140.2113  158.2394 N.ar    1  UNL1       -0.1316
      4 C         143.2712  139.9781  159.3485 C.ar    1  UNL1        0.1615
      5 N         142.4123  138.8085  158.9685 N.ar    1  UNL1       -0.2940
      6 C         141.3298  138.3405  159.8953 C.3     1  UNL1        0.1302
      7 C         141.1061  139.0420  161.2022 C.3     1  UNL1        0.1186
      8 N         141.9650  140.2115  161.5822 N.am    1  UNL1       -0.2688
      9 C         141.7414  140.9130  162.8891 C.2     1  UNL1        0.2494
     10 O         142.6003  142.0825  163.2691 O.2     1  UNL1       -0.2699
     11 C         143.0476  140.6796  160.6554 C.3     1  UNL1        0.1343
     12 C         143.9065  141.8491  161.0354 C.3     1  UNL1        0.0298
     13 C         140.6588  140.4449  163.8159 C.ar    1  UNL1        0.0537
     14 C         139.2804  141.0276  163.7139 C.ar    1  UNL1        0.0068
     15 C         138.1978  140.5594  164.6407 C.ar    1  UNL1        0.0298
     16 C         138.4937  139.5087  165.6695 C.ar    1  UNL1        0.1401
     17 F         137.4112  139.0406  166.5964 F       1  UNL1       -0.2042
     18 C         139.8722  138.9261  165.7715 C.ar    1  UNL1        0.0298
     19 C         140.9547  139.3941  164.8447 C.ar    1  UNL1        0.0068
     20 C         142.0963  133.4862  155.6407 C.3     1  UNL1        0.0744
     21 C         141.9274  134.9436  155.9527 C.ar    1  UNL1        0.1481
     22 N         140.8363  135.8348  155.4376 N.ar    1  UNL1       -0.1929
     23 S         141.0544  137.2078  156.0012 S.2     1  UNL1        0.0369
     24 C         142.2803  137.1650  156.8646 C.ar    1  UNL1        0.1652
     25 N         142.8198  135.7657  156.8347 N.ar    1  UNL1       -0.2190
@<TRIPOS>BOND
     1    20    21    1
     2    21    22   ar
     3    22    23   ar
     4    23    24   ar
     5    24     1    1
     6     1     2   ar
     7     2     3   ar
     8     3     4   ar
     9     4     5   ar
    10     5     6    1
    11     6     7    1
    12     7     8    1
    13     8     9   am
    14     9    10    2
    15     9    13    1
    16    13    14   ar
    17    14    15   ar
    18    15    16   ar
    19    16    17    1
    20    16    18   ar
    21    18    19   ar
    22     8    11    1
    23    11    12    1
    24    24    25   ar
    25    25    21   ar
    26     5     1   ar
    27    19    13   ar
    28    11     4    1
