@<TRIPOS>MOLECULE
*****
 34 38 0 0 0
SMALL
GASTEIGER

@<TRIPOS>ATOM
      1 N         140.1275  143.2411  160.7372 N.am    1  UNL1       -0.2874
      2 C         141.5329  143.1061  160.2306 C.2     1  UNL1        0.3040
      3 O         142.5244  144.2066  160.4672 O.2     1  UNL1       -0.2526
      4 N         141.9468  141.8707  159.4874 N.am    1  UNL1       -0.2642
      5 C         143.3522  141.7357  158.9808 C.3     1  UNL1        0.0954
      6 C         143.7661  140.5003  158.2376 C.3     1  UNL1        0.0309
      7 C         142.7746  139.3999  158.0010 C.3     1  UNL1        0.0827
      8 C         141.3692  139.5348  158.5076 C.3     1  UNL1        0.0309
      9 C         140.9553  140.7703  159.2508 C.3     1  UNL1        0.0954
     10 H         139.4768  142.5188  160.5819 H       1  UNL1        0.1510
     11 C         143.1885  138.1645  157.2577 C.ar    1  UNL1        0.2362
     12 N         142.7023  136.7706  157.5244 N.ar    1  UNL1       -0.1895
     13 C         143.3746  135.8507  156.5488 C.ar    1  UNL1        0.2210
     14 N         144.2762  136.6759  155.6792 N.ar    1  UNL1       -0.0544
     15 O         144.1612  138.1059  156.1173 O.2     1  UNL1       -0.3370
     16 C         143.1795  134.3661  156.4586 C.ar    1  UNL1        0.1202
     17 C         142.0778  133.8047  155.6094 C.ar    1  UNL1        0.0224
     18 C         141.8827  132.3202  155.5192 C.ar    1  UNL1        0.0031
     19 C         142.7892  131.3971  156.2783 C.ar    1  UNL1        0.0177
     20 C         142.5941  129.9126  156.1881 C.ar    1  UNL1        0.0015
     21 C         143.5005  128.9896  156.9472 C.ar    1  UNL1        0.0001
     22 C         144.6022  129.5510  157.7964 C.ar    1  UNL1        0.0015
     23 C         144.7973  131.0355  157.8866 C.ar    1  UNL1        0.0191
     24 C         143.8908  131.9585  157.1275 C.ar    1  UNL1        0.0814
     25 N         144.0860  133.4431  157.2177 N.ar    1  UNL1       -0.2422
     26 C         139.7135  144.4766  161.4805 C.3     1  UNL1        0.1068
     27 N         140.1837  144.1915  164.0964 N.3     1  UNL1       -0.2737
     28 C         139.3300  144.1502  165.3291 C.3     1  UNL1        0.0721
     29 C         137.8996  144.3132  164.9081 C.3     1  UNL1        0.0188
     30 C         137.8691  144.4553  163.4151 C.3     1  UNL1        0.0191
     31 C         139.2808  144.3801  162.9135 C.3     1  UNL1        0.0772
     32 C         142.5272  145.2861  163.8529 C.3     1  UNL1        0.0173
     33 C         141.6778  144.0662  164.0539 C.3     1  UNL1        0.0576
     34 C         142.3225  142.7211  164.2125 C.3     1  UNL1        0.0173
@<TRIPOS>BOND
     1    32    33    1
     2    33    34    1
     3    33    27    1
     4    27    28    1
     5    28    29    1
     6    29    30    1
     7    30    31    1
     8    31    26    1
     9    26     1    1
    10     1     2   am
    11     2     3    2
    12     2     4   am
    13     4     5    1
    14     5     6    1
    15     6     7    1
    16     7    11    1
    17    11    12   ar
    18    12    13   ar
    19    13    16    1
    20    16    17   ar
    21    17    18   ar
    22    18    19   ar
    23    19    20   ar
    24    20    21   ar
    25    21    22   ar
    26    22    23   ar
    27    23    24   ar
    28    24    25   ar
    29    13    14   ar
    30    14    15   ar
    31     7     8    1
    32     8     9    1
    33    31    27    1
    34     9     4    1
    35    15    11   ar
    36    25    16   ar
    37    24    19   ar
    38     1    10    1
@<TRIPOS>MOLECULE
*****
 34 38 0 0 0
SMALL
GASTEIGER

@<TRIPOS>ATOM
      1 N         142.0796  141.5494  165.0603 N.am    1  UNL1       -0.2874
      2 C         142.7804  140.2803  164.6753 C.2     1  UNL1        0.3040
      3 O         143.3820  139.4047  165.7343 O.2     1  UNL1       -0.2526
      4 N         142.8797  139.8868  163.2313 N.am    1  UNL1       -0.2642
      5 C         143.5805  138.6177  162.8462 C.3     1  UNL1        0.0954
      6 C         143.6797  138.2242  161.4022 C.3     1  UNL1        0.0309
      7 C         143.0782  139.0998  160.3432 C.3     1  UNL1        0.0827
      8 C         142.3774  140.3689  160.7282 C.3     1  UNL1        0.0309
      9 C         142.2781  140.7624  162.1722 C.3     1  UNL1        0.0954
     10 H         141.6848  142.1240  164.3652 H       1  UNL1        0.1510
     11 C         143.1774  138.7063  158.8991 C.ar    1  UNL1        0.2362
     12 N         142.6184  137.4569  158.2853 N.ar    1  UNL1       -0.1895
     13 C         142.9486  137.4716  156.8221 C.ar    1  UNL1        0.2210
     14 N         143.7118  138.7298  156.5317 N.ar    1  UNL1       -0.0544
     15 O         143.8532  139.4929  157.8153 O.2     1  UNL1       -0.3370
     16 C         142.5804  136.4136  155.8246 C.ar    1  UNL1        0.1202
     17 C         142.4572  136.7635  154.3712 C.ar    1  UNL1        0.0224
     18 C         142.0889  135.7056  153.3736 C.ar    1  UNL1        0.0031
     19 C         141.8438  134.2976  153.8295 C.ar    1  UNL1        0.0177
     20 C         141.4756  133.2397  152.8319 C.ar    1  UNL1        0.0015
     21 C         141.2306  131.8318  153.2878 C.ar    1  UNL1        0.0001
     22 C         141.3538  131.4819  154.7412 C.ar    1  UNL1        0.0015
     23 C         141.7220  132.5398  155.7387 C.ar    1  UNL1        0.0191
     24 C         141.9671  133.9477  155.2829 C.ar    1  UNL1        0.0814
     25 N         142.3353  135.0057  156.2804 N.ar    1  UNL1       -0.2422
     26 C         141.9803  141.9430  166.5044 C.3     1  UNL1        0.1068
     27 N         140.6146  141.7125  168.7907 N.3     1  UNL1       -0.2737
     28 C         139.5307  140.8048  169.2917 C.3     1  UNL1        0.0721
     29 C         139.1955  139.8350  168.1976 C.3     1  UNL1        0.0188
     30 C         140.0724  140.1433  167.0202 C.3     1  UNL1        0.0191
     31 C         140.9494  141.3037  167.3868 C.3     1  UNL1        0.0772
     32 C         140.4541  144.0551  169.9024 C.3     1  UNL1        0.0173
     33 C         141.2520  142.8323  169.5585 C.3     1  UNL1        0.0576
     34 C         142.6872  142.7295  169.9826 C.3     1  UNL1        0.0173
@<TRIPOS>BOND
     1    32    33    1
     2    33    34    1
     3    33    27    1
     4    27    28    1
     5    28    29    1
     6    29    30    1
     7    30    31    1
     8    31    26    1
     9    26     1    1
    10     1     2   am
    11     2     3    2
    12     2     4   am
    13     4     5    1
    14     5     6    1
    15     6     7    1
    16     7    11    1
    17    11    12   ar
    18    12    13   ar
    19    13    16    1
    20    16    17   ar
    21    17    18   ar
    22    18    19   ar
    23    19    20   ar
    24    20    21   ar
    25    21    22   ar
    26    22    23   ar
    27    23    24   ar
    28    24    25   ar
    29    13    14   ar
    30    14    15   ar
    31     7     8    1
    32     8     9    1
    33    31    27    1
    34     9     4    1
    35    15    11   ar
    36    25    16   ar
    37    24    19   ar
    38     1    10    1
@<TRIPOS>MOLECULE
*****
 34 38 0 0 0
SMALL
GASTEIGER

@<TRIPOS>ATOM
      1 N         141.0313  141.5484  165.1026 N.am    1  UNL1       -0.2874
      2 C         142.2005  141.8824  164.2242 C.2     1  UNL1        0.3040
      3 O         143.1675  142.9522  164.6372 O.2     1  UNL1       -0.2526
      4 N         142.4027  141.1466  162.9328 N.am    1  UNL1       -0.2642
      5 C         143.5718  141.4806  162.0545 C.3     1  UNL1        0.0954
      6 C         143.7740  140.7448  160.7631 C.3     1  UNL1        0.0309
      7 C         142.8071  139.6750  160.3501 C.3     1  UNL1        0.0827
      8 C         141.6379  139.3410  161.2285 C.3     1  UNL1        0.0309
      9 C         141.4357  140.0768  162.5198 C.3     1  UNL1        0.0954
     10 H         140.3967  140.8463  164.8315 H       1  UNL1        0.1510
     11 C         143.0093  138.9392  159.0587 C.ar    1  UNL1        0.2362
     12 N         142.6094  137.5204  158.7803 N.ar    1  UNL1       -0.1895
     13 C         142.9999  137.1974  157.3685 C.ar    1  UNL1        0.2210
     14 N         143.6410  138.4164  156.7743 N.ar    1  UNL1       -0.0544
     15 O         143.6468  139.4929  157.8189 O.2     1  UNL1       -0.3370
     16 C         142.7866  135.8856  156.6730 C.ar    1  UNL1        0.1202
     17 C         141.5573  135.6689  155.8411 C.ar    1  UNL1        0.0224
     18 C         141.3440  134.3571  155.1456 C.ar    1  UNL1        0.0031
     19 C         142.3600  133.2620  155.2820 C.ar    1  UNL1        0.0177
     20 C         142.1467  131.9502  154.5865 C.ar    1  UNL1        0.0015
     21 C         143.1626  130.8551  154.7229 C.ar    1  UNL1        0.0001
     22 C         144.3919  131.0718  155.5548 C.ar    1  UNL1        0.0015
     23 C         144.6052  132.3836  156.2502 C.ar    1  UNL1        0.0191
     24 C         143.5892  133.4786  156.1139 C.ar    1  UNL1        0.0814
     25 N         143.8025  134.7905  156.8094 N.ar    1  UNL1       -0.2422
     26 C         140.8291  142.2843  166.3940 C.3     1  UNL1        0.1068
     27 N         140.9903  140.9135  168.6832 N.3     1  UNL1       -0.2737
     28 C         142.0393  140.7338  169.7402 C.3     1  UNL1        0.0721
     29 C         143.2394  141.5420  169.3445 C.3     1  UNL1        0.0188
     30 C         142.9321  142.2212  168.0428 C.3     1  UNL1        0.0191
     31 C         141.5421  141.8327  167.6341 C.3     1  UNL1        0.0772
     32 C         139.1413  139.5645  167.4539 C.3     1  UNL1        0.0173
     33 C         139.6286  140.2844  168.6763 C.3     1  UNL1        0.0576
     34 C         138.7543  140.3753  169.8918 C.3     1  UNL1        0.0173
@<TRIPOS>BOND
     1    32    33    1
     2    33    34    1
     3    33    27    1
     4    27    28    1
     5    28    29    1
     6    29    30    1
     7    30    31    1
     8    31    26    1
     9    26     1    1
    10     1     2   am
    11     2     3    2
    12     2     4   am
    13     4     5    1
    14     5     6    1
    15     6     7    1
    16     7    11    1
    17    11    12   ar
    18    12    13   ar
    19    13    16    1
    20    16    17   ar
    21    17    18   ar
    22    18    19   ar
    23    19    20   ar
    24    20    21   ar
    25    21    22   ar
    26    22    23   ar
    27    23    24   ar
    28    24    25   ar
    29    13    14   ar
    30    14    15   ar
    31     7     8    1
    32     8     9    1
    33    31    27    1
    34     9     4    1
    35    15    11   ar
    36    25    16   ar
    37    24    19   ar
    38     1    10    1
@<TRIPOS>MOLECULE
*****
 34 38 0 0 0
SMALL
GASTEIGER

@<TRIPOS>ATOM
      1 N         138.3242  141.0712  162.1913 N.am    1  UNL1       -0.2874
      2 C         138.8042  141.5683  160.8600 C.2     1  UNL1        0.3040
      3 O         138.4337  142.9457  160.3957 O.2     1  UNL1       -0.2526
      4 N         139.6548  140.6881  159.9930 N.am    1  UNL1       -0.2642
      5 C         140.1348  141.1852  158.6617 C.3     1  UNL1        0.0954
      6 C         140.9854  140.3049  157.7947 C.3     1  UNL1        0.0309
      7 C         141.3559  138.9276  158.2591 C.3     1  UNL1        0.0827
      8 C         140.8759  138.4304  159.5904 C.3     1  UNL1        0.0309
      9 C         140.0253  139.3107  160.4574 C.3     1  UNL1        0.0954
     10 H         138.5674  140.1672  162.4961 H       1  UNL1        0.1510
     11 C         142.2065  138.0473  157.3921 C.ar    1  UNL1        0.2362
     12 N         141.8731  136.6508  156.9574 N.ar    1  UNL1       -0.1895
     13 C         143.0004  136.1495  156.1042 C.ar    1  UNL1        0.2210
     14 N         144.0304  137.2360  156.0116 N.ar    1  UNL1       -0.0544
     15 O         143.5398  138.4089  156.8075 O.2     1  UNL1       -0.3370
     16 C         143.0831  134.7987  155.4572 C.ar    1  UNL1        0.1202
     17 C         142.3444  134.5328  154.1791 C.ar    1  UNL1        0.0224
     18 C         142.4271  133.1820  153.5321 C.ar    1  UNL1        0.0031
     19 C         143.2484  132.0971  154.1633 C.ar    1  UNL1        0.0177
     20 C         143.3311  130.7463  153.5163 C.ar    1  UNL1        0.0015
     21 C         144.1524  129.6615  154.1475 C.ar    1  UNL1        0.0001
     22 C         144.8911  129.9273  155.4257 C.ar    1  UNL1        0.0015
     23 C         144.8084  131.2781  156.0727 C.ar    1  UNL1        0.0191
     24 C         143.9871  132.3630  155.4415 C.ar    1  UNL1        0.0814
     25 N         143.9044  133.7138  156.0884 N.ar    1  UNL1       -0.2422
     26 C         137.4736  141.9514  163.0584 C.3     1  UNL1        0.1068
     27 N         139.1204  142.4603  165.1015 N.3     1  UNL1       -0.2737
     28 C         139.4926  143.6845  165.8842 C.3     1  UNL1        0.0721
     29 C         138.7188  144.8431  165.3284 C.3     1  UNL1        0.0188
     30 C         137.8683  144.3349  164.2022 C.3     1  UNL1        0.0191
     31 C         138.1165  142.8622  164.0620 C.3     1  UNL1        0.0772
     32 C         138.8051  140.0378  165.9858 C.3     1  UNL1        0.0173
     33 C         139.6576  141.0770  165.3200 C.3     1  UNL1        0.0576
     34 C         141.0474  140.7327  164.8725 C.3     1  UNL1        0.0173
@<TRIPOS>BOND
     1    32    33    1
     2    33    34    1
     3    33    27    1
     4    27    28    1
     5    28    29    1
     6    29    30    1
     7    30    31    1
     8    31    26    1
     9    26     1    1
    10     1     2   am
    11     2     3    2
    12     2     4   am
    13     4     5    1
    14     5     6    1
    15     6     7    1
    16     7    11    1
    17    11    12   ar
    18    12    13   ar
    19    13    16    1
    20    16    17   ar
    21    17    18   ar
    22    18    19   ar
    23    19    20   ar
    24    20    21   ar
    25    21    22   ar
    26    22    23   ar
    27    23    24   ar
    28    24    25   ar
    29    13    14   ar
    30    14    15   ar
    31     7     8    1
    32     8     9    1
    33    31    27    1
    34     9     4    1
    35    15    11   ar
    36    25    16   ar
    37    24    19   ar
    38     1    10    1
@<TRIPOS>MOLECULE
*****
 34 38 0 0 0
SMALL
GASTEIGER

@<TRIPOS>ATOM
      1 N         141.8296  140.9870  164.5521 N.am    1  UNL1       -0.2874
      2 C         141.1605  141.2875  163.2436 C.2     1  UNL1        0.3040
      3 O         140.0622  142.3071  163.1796 O.2     1  UNL1       -0.2526
      4 N         141.5898  140.5685  161.9992 N.am    1  UNL1       -0.2642
      5 C         140.9207  140.8690  160.6908 C.3     1  UNL1        0.0954
      6 C         141.3500  140.1499  159.4464 C.3     1  UNL1        0.0309
      7 C         142.4483  139.1303  159.5104 C.3     1  UNL1        0.0827
      8 C         143.1174  138.8298  160.8188 C.3     1  UNL1        0.0309
      9 C         142.6882  139.5489  162.0632 C.3     1  UNL1        0.0954
     10 H         142.5505  140.3179  164.5940 H       1  UNL1        0.1510
     11 C         142.8776  138.4112  158.2659 C.ar    1  UNL1        0.2362
     12 N         142.6310  136.9649  157.9538 N.ar    1  UNL1       -0.1895
     13 C         143.2298  136.6720  156.6101 C.ar    1  UNL1        0.2210
     14 N         143.8466  137.9373  156.0917 N.ar    1  UNL1       -0.0544
     15 O         143.6289  139.0122  157.1150 O.2     1  UNL1       -0.3370
     16 C         143.2146  135.3465  155.9080 C.ar    1  UNL1        0.1202
     17 C         142.3827  135.1612  154.6736 C.ar    1  UNL1        0.0224
     18 C         142.3674  133.8357  153.9715 C.ar    1  UNL1        0.0031
     19 C         143.1840  132.6956  154.5038 C.ar    1  UNL1        0.0177
     20 C         143.1688  131.3702  153.8017 C.ar    1  UNL1        0.0015
     21 C         143.9854  130.2301  154.3340 C.ar    1  UNL1        0.0001
     22 C         144.8173  130.4154  155.5683 C.ar    1  UNL1        0.0015
     23 C         144.8325  131.7409  156.2704 C.ar    1  UNL1        0.0191
     24 C         144.0159  132.8809  155.7381 C.ar    1  UNL1        0.0814
     25 N         144.0312  134.2065  156.4402 N.ar    1  UNL1       -0.2422
     26 C         141.4004  141.7061  165.7966 C.3     1  UNL1        0.1068
     27 N         140.5073  141.2677  168.2776 N.3     1  UNL1       -0.2737
     28 C         139.4869  140.3559  168.8919 C.3     1  UNL1        0.0721
     29 C         138.8751  139.5379  167.7934 C.3     1  UNL1        0.0188
     30 C         139.5175  139.9442  166.5001 C.3     1  UNL1        0.0191
     31 C         140.5262  141.0132  166.7994 C.3     1  UNL1        0.0772
     32 C         140.7439  143.5086  169.5706 C.3     1  UNL1        0.0173
     33 C         141.3592  142.2598  169.0123 C.3     1  UNL1        0.0576
     34 C         142.8266  142.0031  169.1888 C.3     1  UNL1        0.0173
@<TRIPOS>BOND
     1    32    33    1
     2    33    34    1
     3    33    27    1
     4    27    28    1
     5    28    29    1
     6    29    30    1
     7    30    31    1
     8    31    26    1
     9    26     1    1
    10     1     2   am
    11     2     3    2
    12     2     4   am
    13     4     5    1
    14     5     6    1
    15     6     7    1
    16     7    11    1
    17    11    12   ar
    18    12    13   ar
    19    13    16    1
    20    16    17   ar
    21    17    18   ar
    22    18    19   ar
    23    19    20   ar
    24    20    21   ar
    25    21    22   ar
    26    22    23   ar
    27    23    24   ar
    28    24    25   ar
    29    13    14   ar
    30    14    15   ar
    31     7     8    1
    32     8     9    1
    33    31    27    1
    34     9     4    1
    35    15    11   ar
    36    25    16   ar
    37    24    19   ar
    38     1    10    1
@<TRIPOS>MOLECULE
*****
 34 38 0 0 0
SMALL
GASTEIGER

@<TRIPOS>ATOM
      1 N         141.7170  141.2696  164.4270 N.am    1  UNL1       -0.2874
      2 C         141.2911  141.7102  163.0579 C.2     1  UNL1        0.3040
      3 O         140.4442  142.9375  162.8946 O.2     1  UNL1       -0.2526
      4 N         141.7121  140.9235  161.8521 N.am    1  UNL1       -0.2642
      5 C         141.2862  141.3641  160.4830 C.3     1  UNL1        0.0954
      6 C         141.7071  140.5775  159.2773 C.3     1  UNL1        0.0309
      7 C         142.5540  139.3502  159.4406 C.3     1  UNL1        0.0827
      8 C         142.9800  138.9096  160.8097 C.3     1  UNL1        0.0309
      9 C         142.5590  139.6963  162.0155 C.3     1  UNL1        0.0954
     10 H         142.2729  140.4642  164.5342 H       1  UNL1        0.1510
     11 C         142.9750  138.5635  158.2348 C.ar    1  UNL1        0.2362
     12 N         142.7045  137.1080  157.9931 N.ar    1  UNL1       -0.1895
     13 C         143.3027  136.7392  156.6679 C.ar    1  UNL1        0.2210
     14 N         143.9429  137.9667  156.0906 N.ar    1  UNL1       -0.0544
     15 O         143.7404  139.0942  157.0589 O.2     1  UNL1       -0.3370
     16 C         143.2670  135.3812  156.0318 C.ar    1  UNL1        0.1202
     17 C         142.4040  135.1389  154.8291 C.ar    1  UNL1        0.0224
     18 C         142.3683  133.7810  154.1930 C.ar    1  UNL1        0.0031
     19 C         143.1955  132.6653  154.7595 C.ar    1  UNL1        0.0177
     20 C         143.1598  131.3073  154.1234 C.ar    1  UNL1        0.0015
     21 C         143.9870  130.1917  154.6900 C.ar    1  UNL1        0.0001
     22 C         144.8500  130.4340  155.8927 C.ar    1  UNL1        0.0015
     23 C         144.8858  131.7920  156.5288 C.ar    1  UNL1        0.0191
     24 C         144.0585  132.9076  155.9622 C.ar    1  UNL1        0.0814
     25 N         144.0943  134.2656  156.5984 N.ar    1  UNL1       -0.2422
     26 C         141.2961  142.0563  165.6329 C.3     1  UNL1        0.1068
     27 N         139.5979  140.2876  166.6972 N.3     1  UNL1       -0.2737
     28 C         139.2250  139.8823  168.0925 C.3     1  UNL1        0.0721
     29 C         140.0369  140.7064  169.0472 C.3     1  UNL1        0.0188
     30 C         140.9116  141.6212  168.2421 C.3     1  UNL1        0.0191
     31 C         140.6402  141.3623  166.7897 C.3     1  UNL1        0.0772
     32 C         138.1000  140.5424  164.5898 C.3     1  UNL1        0.0173
     33 C         139.0284  139.7183  165.4317 C.3     1  UNL1        0.0576
     34 C         139.3874  138.3247  165.0081 C.3     1  UNL1        0.0173
@<TRIPOS>BOND
     1    32    33    1
     2    33    34    1
     3    33    27    1
     4    27    28    1
     5    28    29    1
     6    29    30    1
     7    30    31    1
     8    31    26    1
     9    26     1    1
    10     1     2   am
    11     2     3    2
    12     2     4   am
    13     4     5    1
    14     5     6    1
    15     6     7    1
    16     7    11    1
    17    11    12   ar
    18    12    13   ar
    19    13    16    1
    20    16    17   ar
    21    17    18   ar
    22    18    19   ar
    23    19    20   ar
    24    20    21   ar
    25    21    22   ar
    26    22    23   ar
    27    23    24   ar
    28    24    25   ar
    29    13    14   ar
    30    14    15   ar
    31     7     8    1
    32     8     9    1
    33    31    27    1
    34     9     4    1
    35    15    11   ar
    36    25    16   ar
    37    24    19   ar
    38     1    10    1
@<TRIPOS>MOLECULE
*****
 34 38 0 0 0
SMALL
GASTEIGER

@<TRIPOS>ATOM
      1 N         143.4214  136.7077  156.6960 N.am    1  UNL1       -0.2874
      2 C         142.2606  137.6532  156.6051 C.2     1  UNL1        0.3040
      3 O         141.6285  137.9392  155.2751 O.2     1  UNL1       -0.2526
      4 N         141.7318  138.3129  157.8441 N.am    1  UNL1       -0.2642
      5 C         140.5709  139.2585  157.7532 C.3     1  UNL1        0.0954
      6 C         140.0421  139.9181  158.9922 C.3     1  UNL1        0.0309
      7 C         140.6742  139.6322  160.3222 C.3     1  UNL1        0.0827
      8 C         141.8350  138.6866  160.4131 C.3     1  UNL1        0.0309
      9 C         142.3638  138.0269  159.1741 C.3     1  UNL1        0.0954
     10 H         143.8363  136.5200  157.5689 H       1  UNL1        0.1510
     11 C         140.1453  140.2918  161.5612 C.ar    1  UNL1        0.2362
     12 N         140.4041  139.8536  162.9724 N.ar    1  UNL1       -0.1895
     13 C         139.6836  140.7965  163.8899 C.ar    1  UNL1        0.2210
     14 N         138.9795  141.8173  163.0460 N.ar    1  UNL1       -0.0544
     15 O         139.2649  141.5054  161.6068 O.2     1  UNL1       -0.3370
     16 C         139.6696  140.7301  165.3884 C.ar    1  UNL1        0.1202
     17 C         139.0265  139.5657  166.0816 C.ar    1  UNL1        0.0224
     18 C         139.0125  139.4992  167.5800 C.ar    1  UNL1        0.0031
     19 C         139.6416  140.5973  168.3854 C.ar    1  UNL1        0.0177
     20 C         139.6276  140.5309  169.8838 C.ar    1  UNL1        0.0015
     21 C         140.2567  141.6289  170.6891 C.ar    1  UNL1        0.0001
     22 C         140.8998  142.7934  169.9959 C.ar    1  UNL1        0.0015
     23 C         140.9138  142.8598  168.4975 C.ar    1  UNL1        0.0191
     24 C         140.2847  141.7618  167.6922 C.ar    1  UNL1        0.0814
     25 N         140.2987  141.8282  166.1937 N.ar    1  UNL1       -0.2422
     26 C         143.9503  136.0480  155.4570 C.3     1  UNL1        0.1068
     27 N         143.2409  133.4743  155.3224 N.3     1  UNL1       -0.2737
     28 C         142.3570  132.6634  154.4218 C.3     1  UNL1        0.0721
     29 C         141.7786  133.5841  153.3884 C.3     1  UNL1        0.0188
     30 C         142.3051  134.9641  153.6504 C.3     1  UNL1        0.0191
     31 C         143.2088  134.8962  154.8457 C.3     1  UNL1        0.0772
     32 C         143.8066  133.5431  157.8572 C.3     1  UNL1        0.0173
     33 C         144.0201  132.9546  156.4940 C.3     1  UNL1        0.0576
     34 C         145.0128  131.8464  156.3026 C.3     1  UNL1        0.0173
@<TRIPOS>BOND
     1    32    33    1
     2    33    34    1
     3    33    27    1
     4    27    28    1
     5    28    29    1
     6    29    30    1
     7    30    31    1
     8    31    26    1
     9    26     1    1
    10     1     2   am
    11     2     3    2
    12     2     4   am
    13     4     5    1
    14     5     6    1
    15     6     7    1
    16     7    11    1
    17    11    12   ar
    18    12    13   ar
    19    13    16    1
    20    16    17   ar
    21    17    18   ar
    22    18    19   ar
    23    19    20   ar
    24    20    21   ar
    25    21    22   ar
    26    22    23   ar
    27    23    24   ar
    28    24    25   ar
    29    13    14   ar
    30    14    15   ar
    31     7     8    1
    32     8     9    1
    33    31    27    1
    34     9     4    1
    35    15    11   ar
    36    25    16   ar
    37    24    19   ar
    38     1    10    1
@<TRIPOS>MOLECULE
*****
 34 38 0 0 0
SMALL
GASTEIGER

@<TRIPOS>ATOM
      1 N         142.1374  141.2134  163.7468 N.am    1  UNL1       -0.2874
      2 C         141.1393  140.7530  162.7261 C.2     1  UNL1        0.3040
      3 O         139.6806  141.0453  162.9183 O.2     1  UNL1       -0.2526
      4 N         141.5999  140.0004  161.5131 N.am    1  UNL1       -0.2642
      5 C         140.6018  139.5400  160.4923 C.3     1  UNL1        0.0954
      6 C         141.0624  138.7873  159.2794 C.3     1  UNL1        0.0309
      7 C         142.5210  138.4950  159.0871 C.3     1  UNL1        0.0827
      8 C         143.5191  138.9554  160.1078 C.3     1  UNL1        0.0309
      9 C         143.0585  139.7081  161.3208 C.3     1  UNL1        0.0954
     10 H         143.0947  141.0216  163.6206 H       1  UNL1        0.1510
     11 C         142.9816  137.7424  157.8741 C.ar    1  UNL1        0.2362
     12 N         142.7064  136.2984  157.5753 N.ar    1  UNL1       -0.1895
     13 C         143.3530  135.9652  156.2634 C.ar    1  UNL1        0.2210
     14 N         144.0278  137.2031  155.7515 N.ar    1  UNL1       -0.0544
     15 O         143.7983  138.3015  156.7469 O.2     1  UNL1       -0.3370
     16 C         143.3290  134.6285  155.5830 C.ar    1  UNL1        0.1202
     17 C         142.5242  134.4384  154.3315 C.ar    1  UNL1        0.0224
     18 C         142.5001  133.1019  153.6511 C.ar    1  UNL1        0.0031
     19 C         143.2809  131.9554  154.2222 C.ar    1  UNL1        0.0177
     20 C         143.2568  130.6188  153.5417 C.ar    1  UNL1        0.0015
     21 C         144.0375  129.4724  154.1128 C.ar    1  UNL1        0.0001
     22 C         144.8422  129.6625  155.3643 C.ar    1  UNL1        0.0015
     23 C         144.8663  130.9990  156.0447 C.ar    1  UNL1        0.0191
     24 C         144.0856  132.1455  155.4737 C.ar    1  UNL1        0.0814
     25 N         144.1096  133.4821  156.1541 N.ar    1  UNL1       -0.2422
     26 C         141.6768  141.9661  164.9598 C.3     1  UNL1        0.1068
     27 N         140.9714  144.3320  163.9351 N.3     1  UNL1       -0.2737
     28 C         139.7937  145.2475  164.0929 C.3     1  UNL1        0.0721
     29 C         138.8422  144.6155  165.0650 C.3     1  UNL1        0.0188
     30 C         139.4318  143.3093  165.5082 C.3     1  UNL1        0.0191
     31 C         140.7477  143.1341  164.8098 C.3     1  UNL1        0.0772
     32 C         142.0729  144.3129  161.5822 C.3     1  UNL1        0.0173
     33 C         142.1635  144.5721  163.0569 C.3     1  UNL1        0.0576
     34 C         143.4461  145.0714  163.6533 C.3     1  UNL1        0.0173
@<TRIPOS>BOND
     1    32    33    1
     2    33    34    1
     3    33    27    1
     4    27    28    1
     5    28    29    1
     6    29    30    1
     7    30    31    1
     8    31    26    1
     9    26     1    1
    10     1     2   am
    11     2     3    2
    12     2     4   am
    13     4     5    1
    14     5     6    1
    15     6     7    1
    16     7    11    1
    17    11    12   ar
    18    12    13   ar
    19    13    16    1
    20    16    17   ar
    21    17    18   ar
    22    18    19   ar
    23    19    20   ar
    24    20    21   ar
    25    21    22   ar
    26    22    23   ar
    27    23    24   ar
    28    24    25   ar
    29    13    14   ar
    30    14    15   ar
    31     7     8    1
    32     8     9    1
    33    31    27    1
    34     9     4    1
    35    15    11   ar
    36    25    16   ar
    37    24    19   ar
    38     1    10    1
@<TRIPOS>MOLECULE
*****
 34 38 0 0 0
SMALL
GASTEIGER

@<TRIPOS>ATOM
      1 N         143.1455  135.3760  157.5255 N.am    1  UNL1       -0.2874
      2 C         142.8835  136.8031  157.1454 C.2     1  UNL1        0.3040
      3 O         142.7176  137.1765  155.7021 O.2     1  UNL1       -0.2526
      4 N         142.7875  137.8569  158.2085 N.am    1  UNL1       -0.2642
      5 C         142.5255  139.2841  157.8283 C.3     1  UNL1        0.0954
      6 C         142.4295  140.3379  158.8915 C.3     1  UNL1        0.0309
      7 C         142.5954  139.9645  160.3348 C.3     1  UNL1        0.0827
      8 C         142.8574  138.5373  160.7149 C.3     1  UNL1        0.0309
      9 C         142.9534  137.4835  159.6518 C.3     1  UNL1        0.0954
     10 H         143.2544  135.1309  158.4728 H       1  UNL1        0.1510
     11 C         142.4994  141.0183  161.3979 C.ar    1  UNL1        0.2362
     12 N         142.0063  140.8141  162.7998 N.ar    1  UNL1       -0.1895
     13 C         142.0818  142.1309  163.5141 C.ar    1  UNL1        0.2210
     14 N         142.6215  143.1490  162.5538 N.ar    1  UNL1       -0.0544
     15 O         142.8796  142.4614  161.2459 O.2     1  UNL1       -0.3370
     16 C         141.6868  142.3850  164.9387 C.ar    1  UNL1        0.1202
     17 C         140.3068  142.8786  165.2578 C.ar    1  UNL1        0.0224
     18 C         139.9118  143.1328  166.6823 C.ar    1  UNL1        0.0031
     19 C         140.8969  142.8933  167.7879 C.ar    1  UNL1        0.0177
     20 C         140.5019  143.1474  169.2125 C.ar    1  UNL1        0.0015
     21 C         141.4870  142.9079  170.3180 C.ar    1  UNL1        0.0001
     22 C         142.8671  142.4143  169.9989 C.ar    1  UNL1        0.0015
     23 C         143.2621  142.1602  168.5744 C.ar    1  UNL1        0.0191
     24 C         142.2770  142.3997  167.4689 C.ar    1  UNL1        0.0814
     25 N         142.6719  142.1456  166.0443 N.ar    1  UNL1       -0.2422
     26 C         143.2415  134.3221  156.4623 C.3     1  UNL1        0.1068
     27 N         143.6346  131.7146  156.0246 N.3     1  UNL1       -0.2737
     28 C         144.4457  130.6389  156.6841 C.3     1  UNL1        0.0721
     29 C         145.1710  131.2513  157.8455 C.3     1  UNL1        0.0188
     30 C         144.8082  132.7057  157.9038 C.3     1  UNL1        0.0191
     31 C         143.8587  132.9919  156.7784 C.3     1  UNL1        0.0772
     32 C         143.3646  131.2979  153.4745 C.3     1  UNL1        0.0173
     33 C         142.7541  131.5432  154.8225 C.3     1  UNL1        0.0576
     34 C         141.2629  131.6170  154.9682 C.3     1  UNL1        0.0173
@<TRIPOS>BOND
     1    32    33    1
     2    33    34    1
     3    33    27    1
     4    27    28    1
     5    28    29    1
     6    29    30    1
     7    30    31    1
     8    31    26    1
     9    26     1    1
    10     1     2   am
    11     2     3    2
    12     2     4   am
    13     4     5    1
    14     5     6    1
    15     6     7    1
    16     7    11    1
    17    11    12   ar
    18    12    13   ar
    19    13    16    1
    20    16    17   ar
    21    17    18   ar
    22    18    19   ar
    23    19    20   ar
    24    20    21   ar
    25    21    22   ar
    26    22    23   ar
    27    23    24   ar
    28    24    25   ar
    29    13    14   ar
    30    14    15   ar
    31     7     8    1
    32     8     9    1
    33    31    27    1
    34     9     4    1
    35    15    11   ar
    36    25    16   ar
    37    24    19   ar
    38     1    10    1
