@<TRIPOS>MOLECULE
*****
 33 36 0 0 0
SMALL
GASTEIGER

@<TRIPOS>ATOM
      1 N         142.3657  138.4883  157.6781 N.am    1  UNL1       -0.2999
      2 C         143.4018  139.1267  156.8012 C.2     1  UNL1        0.2701
      3 O         144.6044  139.7803  157.4148 O.2     1  UNL1       -0.2706
      4 H         141.5765  138.0593  157.2753 H       1  UNL1        0.1496
      5 N         142.7678  138.5252  161.2769 N.3     1  UNL1       -0.2711
      6 C         142.2134  139.4802  160.2617 C.3     1  UNL1        0.0933
      7 C         142.5323  138.5035  159.1687 C.3     1  UNL1        0.1035
      8 C         143.0867  137.5486  160.1839 C.3     1  UNL1        0.0933
      9 C         143.2675  138.5709  165.7488 C.3     1  UNL1        0.1153
     10 C         144.3226  139.1746  164.8700 C.3     1  UNL1        0.0309
     11 C         144.1560  139.1593  163.3794 C.3     1  UNL1        0.0184
     12 C         142.9343  138.5404  162.7675 C.3     1  UNL1        0.0578
     13 C         141.8792  137.9368  163.6463 C.3     1  UNL1        0.0184
     14 C         142.0457  137.9520  165.1368 C.3     1  UNL1        0.0309
     15 O         143.4339  138.5861  167.2394 O.3     1  UNL1       -0.3562
     16 C         142.4207  139.2711  169.5318 C.3     1  UNL1        0.0346
     17 C         142.6379  139.5460  168.0732 C.3     1  UNL1        0.1421
     18 C         143.2352  139.1115  155.3105 C.3     1  UNL1        0.2850
     19 N         143.6209  137.8930  154.5252 N.pl3   1  UNL1       -0.2091
     20 H         144.5005  137.8490  154.0851 H       1  UNL1        0.2928
     21 C         142.6665  136.7415  154.4103 C.2     1  UNL1        0.3493
     22 N         141.4190  136.7101  153.5780 N.2     1  UNL1        0.0798
     23 N         140.7735  135.3685  153.7609 N.2     1  UNL1       -0.0381
     24 C         141.6220  134.5708  154.7063 C.2     1  UNL1        0.1169
     25 C         141.4805  133.1814  155.2535 C.3     1  UNL1        0.0759
     26 C         142.5089  132.6406  156.2020 C.2     1  UNL1       -0.0158
     27 C         143.6789  133.4892  156.6034 C.2     1  UNL1        0.0678
     28 C         143.8204  134.8786  156.0562 C.2     1  UNL1        0.0123
     29 C         142.7920  135.4194  155.1076 C.2     1  UNL1        0.1019
     30 C         144.7074  132.9483  157.5520 C.3     1  UNL1        0.4183
     31 F         145.7358  132.4075  158.5005 F       1  UNL1       -0.1659
     32 F         144.1434  133.8010  158.6497 F       1  UNL1       -0.1659
     33 F         145.2713  132.0957  156.4543 F       1  UNL1       -0.1659
@<TRIPOS>BOND
     1    16    17    1
     2    17    15    1
     3     9    15    1
     4     9    10    1
     5    10    11    1
     6    11    12    1
     7    12     5    1
     8     5     6    1
     9     6     7    1
    10     7     1    1
    11     1     2   am
    12     2     3    2
    13     2    18    1
    14    18    19    1
    15    19    21    1
    16    21    22    2
    17    22    23    1
    18    23    24    2
    19    24    25    1
    20    25    26    1
    21    26    27    2
    22    27    30    1
    23    30    31    1
    24    30    32    1
    25    30    33    1
    26    27    28    1
    27    28    29    2
    28     7     8    1
    29    12    13    1
    30    13    14    1
    31    14     9    1
    32     8     5    1
    33    29    21    1
    34    29    24    1
    35     1     4    1
    36    19    20    1
@<TRIPOS>MOLECULE
*****
 33 36 0 0 0
SMALL
GASTEIGER

@<TRIPOS>ATOM
      1 N         142.3678  143.4542  161.7975 N.am    1  UNL1       -0.2999
      2 C         142.7877  144.5002  162.7872 C.2     1  UNL1        0.2701
      3 O         144.0984  145.2097  162.6181 O.2     1  UNL1       -0.2706
      4 H         141.5075  142.9886  161.9085 H       1  UNL1        0.1496
      5 N         144.5185  142.6420  158.9995 N.3     1  UNL1       -0.2711
      6 C         143.1873  143.3159  159.1533 C.3     1  UNL1        0.0933
      7 C         143.2587  143.1178  160.6385 C.3     1  UNL1        0.1035
      8 C         144.5899  142.4439  160.4846 C.3     1  UNL1        0.0933
      9 C         147.1913  141.6326  155.5227 C.3     1  UNL1        0.1153
     10 C         145.8620  140.9531  155.6689 C.3     1  UNL1        0.0309
     11 C         144.9711  141.2896  156.8278 C.3     1  UNL1        0.0184
     12 C         145.4094  142.3055  157.8406 C.3     1  UNL1        0.0578
     13 C         146.7387  142.9850  157.6944 C.3     1  UNL1        0.0184
     14 C         147.6296  142.6486  156.5356 C.3     1  UNL1        0.0309
     15 O         148.0822  141.2962  154.3639 O.3     1  UNL1       -0.3562
     16 C         150.6484  141.5060  154.7121 C.3     1  UNL1        0.0346
     17 C         149.3637  142.0488  154.1599 C.3     1  UNL1        0.1421
     18 C         141.8968  144.8366  163.9461 C.3     1  UNL1        0.2850
     19 N         140.4824  145.2732  163.7029 N.pl3   1  UNL1       -0.2091
     20 H         140.2204  146.2078  163.8677 H       1  UNL1        0.2928
     21 C         139.4672  144.2859  163.2084 C.2     1  UNL1        0.3493
     22 N         138.6296  144.4268  161.9721 N.2     1  UNL1        0.0798
     23 N         137.7561  143.2122  161.8631 N.2     1  UNL1       -0.0381
     24 C         138.0540  142.3206  163.0320 C.2     1  UNL1        0.1169
     25 C         137.4989  140.9903  163.4466 C.3     1  UNL1        0.0759
     26 C         138.0013  140.3235  164.6928 C.2     1  UNL1       -0.0158
     27 C         139.0588  140.9870  165.5243 C.2     1  UNL1        0.0678
     28 C         139.6139  142.3174  165.1096 C.2     1  UNL1        0.0123
     29 C         139.1115  142.9842  163.8634 C.2     1  UNL1        0.1019
     30 C         139.5612  140.3202  166.7705 C.3     1  UNL1        0.4183
     31 F         140.0636  139.6534  168.0166 F       1  UNL1       -0.1659
     32 F         139.2391  138.9784  166.1824 F       1  UNL1       -0.1659
     33 F         139.8833  141.6619  167.3585 F       1  UNL1       -0.1659
@<TRIPOS>BOND
     1    16    17    1
     2    17    15    1
     3     9    15    1
     4     9    10    1
     5    10    11    1
     6    11    12    1
     7    12     5    1
     8     5     6    1
     9     6     7    1
    10     7     1    1
    11     1     2   am
    12     2     3    2
    13     2    18    1
    14    18    19    1
    15    19    21    1
    16    21    22    2
    17    22    23    1
    18    23    24    2
    19    24    25    1
    20    25    26    1
    21    26    27    2
    22    27    30    1
    23    30    31    1
    24    30    32    1
    25    30    33    1
    26    27    28    1
    27    28    29    2
    28     7     8    1
    29    12    13    1
    30    13    14    1
    31    14     9    1
    32     8     5    1
    33    29    21    1
    34    29    24    1
    35     1     4    1
    36    19    20    1
@<TRIPOS>MOLECULE
*****
 33 36 0 0 0
SMALL
GASTEIGER

@<TRIPOS>ATOM
      1 N         143.0513  137.2600  160.2442 N.am    1  UNL1       -0.2999
      2 C         142.5167  138.0014  159.0550 C.2     1  UNL1        0.2701
      3 O         141.8624  139.3389  159.2370 O.2     1  UNL1       -0.2706
      4 H         143.4807  136.3821  160.1248 H       1  UNL1        0.1496
      5 N         142.7624  138.6990  163.5548 N.3     1  UNL1       -0.2711
      6 C         141.8701  137.8744  162.6752 C.3     1  UNL1        0.0933
      7 C         142.9317  137.8560  161.6155 C.3     1  UNL1        0.1035
      8 C         143.8240  138.6806  162.4952 C.3     1  UNL1        0.0933
      9 C         142.4036  140.4872  167.6687 C.3     1  UNL1        0.1153
     10 C         141.9877  141.2820  166.4665 C.3     1  UNL1        0.0309
     11 C         142.1074  140.6860  165.0952 C.3     1  UNL1        0.0184
     12 C         142.6428  139.2951  164.9261 C.3     1  UNL1        0.0578
     13 C         143.0587  138.5002  166.1283 C.3     1  UNL1        0.0184
     14 C         142.9391  139.0962  167.4995 C.3     1  UNL1        0.0309
     15 O         142.2840  141.0832  169.0399 O.3     1  UNL1       -0.3562
     16 C         144.2492  142.5507  169.8971 C.3     1  UNL1        0.0346
     17 C         142.8680  142.4355  169.3235 C.3     1  UNL1        0.1421
     18 C         142.6363  137.4053  157.6837 C.3     1  UNL1        0.2850
     19 N         141.4011  137.0656  156.9032 N.pl3   1  UNL1       -0.2091
     20 H         140.5543  137.5295  157.0954 H       1  UNL1        0.2928
     21 C         141.4563  136.0191  155.8300 C.2     1  UNL1        0.3493
     22 N         140.6505  136.0103  154.5648 N.2     1  UNL1        0.0798
     23 N         141.0232  134.7834  153.7865 N.2     1  UNL1       -0.0381
     24 C         142.0592  134.0339  154.5706 C.2     1  UNL1        0.1169
     25 C         142.7935  132.7547  154.2978 C.3     1  UNL1        0.0759
     26 C         143.7954  132.2392  155.2879 C.2     1  UNL1       -0.0158
     27 C         144.0630  133.0029  156.5509 C.2     1  UNL1        0.0678
     28 C         143.3288  134.2821  156.8237 C.2     1  UNL1        0.0123
     29 C         142.3269  134.7976  155.8336 C.2     1  UNL1        0.1019
     30 C         145.0650  132.4873  157.5410 C.3     1  UNL1        0.4183
     31 F         146.0669  131.9718  158.5312 F       1  UNL1       -0.1659
     32 F         145.5845  131.5250  156.5144 F       1  UNL1       -0.1659
     33 F         144.5456  133.4496  158.5677 F       1  UNL1       -0.1659
@<TRIPOS>BOND
     1    16    17    1
     2    17    15    1
     3     9    15    1
     4     9    10    1
     5    10    11    1
     6    11    12    1
     7    12     5    1
     8     5     6    1
     9     6     7    1
    10     7     1    1
    11     1     2   am
    12     2     3    2
    13     2    18    1
    14    18    19    1
    15    19    21    1
    16    21    22    2
    17    22    23    1
    18    23    24    2
    19    24    25    1
    20    25    26    1
    21    26    27    2
    22    27    30    1
    23    30    31    1
    24    30    32    1
    25    30    33    1
    26    27    28    1
    27    28    29    2
    28     7     8    1
    29    12    13    1
    30    13    14    1
    31    14     9    1
    32     8     5    1
    33    29    21    1
    34    29    24    1
    35     1     4    1
    36    19    20    1
@<TRIPOS>MOLECULE
*****
 33 36 0 0 0
SMALL
GASTEIGER

@<TRIPOS>ATOM
      1 N         140.8567  138.8534  159.8548 N.am    1  UNL1       -0.2999
      2 C         142.2075  138.4037  159.3824 C.2     1  UNL1        0.2701
      3 O         143.2890  138.1049  160.3779 O.2     1  UNL1       -0.2706
      4 H         140.1469  139.0496  159.2014 H       1  UNL1        0.1496
      5 N         140.2068  139.2177  163.3987 N.3     1  UNL1       -0.2711
      6 C         140.7154  138.1121  162.5217 C.3     1  UNL1        0.0933
      7 C         140.5875  139.0043  161.3227 C.3     1  UNL1        0.1035
      8 C         140.0789  140.1099  162.1996 C.3     1  UNL1        0.0933
      9 C         139.3992  139.6704  167.8024 C.3     1  UNL1        0.1153
     10 C         138.2872  139.2872  166.8715 C.3     1  UNL1        0.0309
     11 C         138.5564  139.1363  165.4035 C.3     1  UNL1        0.0184
     12 C         139.9376  139.3686  164.8666 C.3     1  UNL1        0.0578
     13 C         141.0496  139.7518  165.7975 C.3     1  UNL1        0.0184
     14 C         140.7804  139.9027  167.2653 C.3     1  UNL1        0.0309
     15 O         139.1301  139.8214  169.2703 O.3     1  UNL1       -0.3562
     16 C         139.6577  142.1598  170.2722 C.3     1  UNL1        0.0346
     17 C         140.0038  140.7098  170.1054 C.3     1  UNL1        0.1421
     18 C         142.4767  138.2528  157.9145 C.3     1  UNL1        0.2850
     19 N         143.1796  137.0304  157.4027 N.pl3   1  UNL1       -0.2091
     20 H         144.1275  136.8796  157.6218 H       1  UNL1        0.2928
     21 C         142.4383  136.0379  156.5569 C.2     1  UNL1        0.3493
     22 N         141.3313  136.3521  155.5948 N.2     1  UNL1        0.0798
     23 N         140.8827  135.0652  154.9681 N.2     1  UNL1       -0.0381
     24 C         141.7125  133.9557  155.5429 C.2     1  UNL1        0.1169
     25 C         141.7169  132.4757  155.2990 C.3     1  UNL1        0.0759
     26 C         142.6827  131.5968  156.0370 C.2     1  UNL1       -0.0158
     27 C         143.6442  132.1980  157.0190 C.2     1  UNL1        0.0678
     28 C         143.6398  133.6780  157.2629 C.2     1  UNL1        0.0123
     29 C         142.6740  134.5568  156.5248 C.2     1  UNL1        0.1019
     30 C         144.6100  131.3190  157.7571 C.3     1  UNL1        0.4183
     31 F         145.5758  130.4401  158.4951 F       1  UNL1       -0.1659
     32 F         145.4565  132.5159  158.0747 F       1  UNL1       -0.1659
     33 F         143.7635  130.1222  157.4395 F       1  UNL1       -0.1659
@<TRIPOS>BOND
     1    16    17    1
     2    17    15    1
     3     9    15    1
     4     9    10    1
     5    10    11    1
     6    11    12    1
     7    12     5    1
     8     5     6    1
     9     6     7    1
    10     7     1    1
    11     1     2   am
    12     2     3    2
    13     2    18    1
    14    18    19    1
    15    19    21    1
    16    21    22    2
    17    22    23    1
    18    23    24    2
    19    24    25    1
    20    25    26    1
    21    26    27    2
    22    27    30    1
    23    30    31    1
    24    30    32    1
    25    30    33    1
    26    27    28    1
    27    28    29    2
    28     7     8    1
    29    12    13    1
    30    13    14    1
    31    14     9    1
    32     8     5    1
    33    29    21    1
    34    29    24    1
    35     1     4    1
    36    19    20    1
@<TRIPOS>MOLECULE
*****
 33 36 0 0 0
SMALL
GASTEIGER

@<TRIPOS>ATOM
      1 N         141.3180  138.3803  160.3218 N.am    1  UNL1       -0.2999
      2 C         142.5890  138.4071  159.5257 C.2     1  UNL1        0.2701
      3 O         143.8925  138.7089  160.2037 O.2     1  UNL1       -0.2706
      4 H         140.4624  138.1822  159.8768 H       1  UNL1        0.1496
      5 N         141.3967  139.0440  163.8809 N.3     1  UNL1       -0.2711
      6 C         141.3578  137.8071  163.0333 C.3     1  UNL1        0.0933
      7 C         141.3506  138.6553  161.7960 C.3     1  UNL1        0.1035
      8 C         141.3894  139.8921  162.6437 C.3     1  UNL1        0.0933
      9 C         141.4945  139.8689  168.3036 C.3     1  UNL1        0.1153
     10 C         140.2059  139.9928  167.5459 C.3     1  UNL1        0.0309
     11 C         140.1733  139.7179  166.0717 C.3     1  UNL1        0.0184
     12 C         141.4293  139.3190  165.3552 C.3     1  UNL1        0.0578
     13 C         142.7179  139.1950  166.1129 C.3     1  UNL1        0.0184
     14 C         142.7505  139.4700  167.5870 C.3     1  UNL1        0.0309
     15 O         141.5272  140.1438  169.7778 O.3     1  UNL1       -0.3562
     16 C         141.6164  142.7390  169.6906 C.3     1  UNL1        0.0346
     17 C         141.0832  141.4773  170.3021 C.3     1  UNL1        0.1421
     18 C         142.5564  138.1322  158.0514 C.3     1  UNL1        0.2850
     19 N         143.2572  136.9270  157.4976 N.pl3   1  UNL1       -0.2091
     20 H         144.2095  136.7765  157.6968 H       1  UNL1        0.2928
     21 C         142.5069  135.9513  156.6402 C.2     1  UNL1        0.3493
     22 N         141.4147  136.2889  155.6691 N.2     1  UNL1        0.0798
     23 N         140.9500  135.0129  155.0321 N.2     1  UNL1       -0.0381
     24 C         141.7550  133.8866  155.6096 C.2     1  UNL1        0.1169
     25 C         141.7361  132.4078  155.3588 C.3     1  UNL1        0.0759
     26 C         142.6795  131.5091  156.1019 C.2     1  UNL1       -0.0158
     27 C         143.6417  132.0890  157.0958 C.2     1  UNL1        0.0678
     28 C         143.6606  133.5677  157.3465 C.2     1  UNL1        0.0123
     29 C         142.7172  134.4665  156.6034 C.2     1  UNL1        0.1019
     30 C         144.5851  131.1901  157.8389 C.3     1  UNL1        0.4183
     31 F         145.5285  130.2914  158.5819 F       1  UNL1       -0.1659
     32 F         143.5565  130.0985  157.8243 F       1  UNL1       -0.1659
     33 F         145.6137  132.2818  157.8535 F       1  UNL1       -0.1659
@<TRIPOS>BOND
     1    16    17    1
     2    17    15    1
     3     9    15    1
     4     9    10    1
     5    10    11    1
     6    11    12    1
     7    12     5    1
     8     5     6    1
     9     6     7    1
    10     7     1    1
    11     1     2   am
    12     2     3    2
    13     2    18    1
    14    18    19    1
    15    19    21    1
    16    21    22    2
    17    22    23    1
    18    23    24    2
    19    24    25    1
    20    25    26    1
    21    26    27    2
    22    27    30    1
    23    30    31    1
    24    30    32    1
    25    30    33    1
    26    27    28    1
    27    28    29    2
    28     7     8    1
    29    12    13    1
    30    13    14    1
    31    14     9    1
    32     8     5    1
    33    29    21    1
    34    29    24    1
    35     1     4    1
    36    19    20    1
@<TRIPOS>MOLECULE
*****
 33 36 0 0 0
SMALL
GASTEIGER

@<TRIPOS>ATOM
      1 N         143.2044  137.0768  159.3713 N.am    1  UNL1       -0.2999
      2 C         142.6817  137.8085  158.1708 C.2     1  UNL1        0.2701
      3 O         142.0355  139.1523  158.3340 O.2     1  UNL1       -0.2706
      4 H         143.6286  136.1948  159.2641 H       1  UNL1        0.1496
      5 N         142.9062  138.5546  162.6639 N.3     1  UNL1       -0.2711
      6 C         141.9559  137.9023  161.7041 C.3     1  UNL1        0.0933
      7 C         143.0810  137.6890  160.7352 C.3     1  UNL1        0.1035
      8 C         144.0313  138.3413  161.6950 C.3     1  UNL1        0.0933
      9 C         142.5358  140.3911  166.7555 C.3     1  UNL1        0.1153
     10 C         142.3463  141.2391  165.5328 C.3     1  UNL1        0.0309
     11 C         142.4698  140.6269  164.1690 C.3     1  UNL1        0.0184
     12 C         142.7828  139.1668  164.0278 C.3     1  UNL1        0.0578
     13 C         142.9723  138.3188  165.2504 C.3     1  UNL1        0.0184
     14 C         142.8488  138.9308  166.6142 C.3     1  UNL1        0.0309
     15 O         142.4124  141.0031  168.1193 O.3     1  UNL1       -0.3562
     16 C         143.4678  142.5527  169.9179 C.3     1  UNL1        0.0346
     17 C         143.2307  142.2082  168.4774 C.3     1  UNL1        0.1421
     18 C         142.8052  137.1964  156.8070 C.3     1  UNL1        0.2850
     19 N         142.0974  135.9111  156.4948 N.pl3   1  UNL1       -0.2091
     20 H         141.1988  135.9290  156.0930 H       1  UNL1        0.2928
     21 C         142.7588  134.5987  156.7949 C.2     1  UNL1        0.3493
     22 N         143.9136  134.3864  157.7284 N.2     1  UNL1        0.0798
     23 N         144.2499  132.9246  157.7245 N.2     1  UNL1       -0.0381
     24 C         143.3031  132.2335  156.7887 C.2     1  UNL1        0.1169
     25 C         143.1610  130.7957  156.3855 C.3     1  UNL1        0.0759
     26 C         142.0973  130.3926  155.4078 C.2     1  UNL1       -0.0158
     27 C         141.1757  131.4273  154.8332 C.2     1  UNL1        0.0678
     28 C         141.3178  132.8650  155.2364 C.2     1  UNL1        0.0123
     29 C         142.3815  133.2681  156.2142 C.2     1  UNL1        0.1019
     30 C         140.1119  131.0241  153.8554 C.3     1  UNL1        0.4183
     31 F         139.0482  130.6210  152.8777 F       1  UNL1       -0.1659
     32 F         140.9852  131.4715  152.7209 F       1  UNL1       -0.1659
     33 F         139.2387  130.5767  154.9900 F       1  UNL1       -0.1659
@<TRIPOS>BOND
     1    16    17    1
     2    17    15    1
     3     9    15    1
     4     9    10    1
     5    10    11    1
     6    11    12    1
     7    12     5    1
     8     5     6    1
     9     6     7    1
    10     7     1    1
    11     1     2   am
    12     2     3    2
    13     2    18    1
    14    18    19    1
    15    19    21    1
    16    21    22    2
    17    22    23    1
    18    23    24    2
    19    24    25    1
    20    25    26    1
    21    26    27    2
    22    27    30    1
    23    30    31    1
    24    30    32    1
    25    30    33    1
    26    27    28    1
    27    28    29    2
    28     7     8    1
    29    12    13    1
    30    13    14    1
    31    14     9    1
    32     8     5    1
    33    29    21    1
    34    29    24    1
    35     1     4    1
    36    19    20    1
@<TRIPOS>MOLECULE
*****
 33 36 0 0 0
SMALL
GASTEIGER

@<TRIPOS>ATOM
      1 N         142.6161  142.7530  162.3989 N.am    1  UNL1       -0.2999
      2 C         142.4309  144.2153  162.1211 C.2     1  UNL1        0.2701
      3 O         142.3609  144.7070  160.7058 O.2     1  UNL1       -0.2706
      4 H         142.6620  142.4303  163.3279 H       1  UNL1        0.1496
      5 N         142.8944  140.4095  159.6521 N.3     1  UNL1       -0.2711
      6 C         141.7594  141.1140  160.3344 C.3     1  UNL1        0.0933
      7 C         142.7314  141.7823  161.2611 C.3     1  UNL1        0.1035
      8 C         143.8663  141.0778  160.5788 C.3     1  UNL1        0.0933
      9 C         143.2403  137.4974  156.2388 C.3     1  UNL1        0.1153
     10 C         143.6146  138.9360  156.0382 C.3     1  UNL1        0.0309
     11 C         143.4993  139.9067  157.1759 C.3     1  UNL1        0.0184
     12 C         143.0097  139.4388  158.5143 C.3     1  UNL1        0.0578
     13 C         142.6354  138.0002  158.7150 C.3     1  UNL1        0.0184
     14 C         142.7506  137.0295  157.5773 C.3     1  UNL1        0.0309
     15 O         143.3555  136.5267  155.1012 O.3     1  UNL1       -0.3562
     16 C         142.3232  134.1506  155.2988 C.3     1  UNL1        0.0346
     17 C         143.5127  135.0610  155.3790 C.3     1  UNL1        0.1421
     18 C         142.3156  145.1860  163.2589 C.3     1  UNL1        0.2850
     19 N         140.9704  145.4986  163.8447 N.pl3   1  UNL1       -0.2091
     20 H         140.8785  146.2186  164.5099 H       1  UNL1        0.2928
     21 C         139.7655  144.7143  163.4170 C.2     1  UNL1        0.3493
     22 N         138.8097  145.0923  162.3245 N.2     1  UNL1        0.0798
     23 N         137.7583  144.0259  162.2390 N.2     1  UNL1       -0.0381
     24 C         138.0643  142.9888  163.2786 C.2     1  UNL1        0.1169
     25 C         137.3737  141.7120  163.6564 C.3     1  UNL1        0.0759
     26 C         137.9236  140.8607  164.7622 C.2     1  UNL1       -0.0158
     27 C         139.1641  141.2861  165.4902 C.2     1  UNL1        0.0678
     28 C         139.8548  142.5629  165.1125 C.2     1  UNL1        0.0123
     29 C         139.3049  143.4143  164.0067 C.2     1  UNL1        0.1019
     30 C         139.7140  140.4348  166.5961 C.3     1  UNL1        0.4183
     31 F         140.2639  139.5834  167.7019 F       1  UNL1       -0.1659
     32 F         139.4821  139.2070  165.7662 F       1  UNL1       -0.1659
     33 F         139.9459  141.6625  167.4260 F       1  UNL1       -0.1659
@<TRIPOS>BOND
     1    16    17    1
     2    17    15    1
     3     9    15    1
     4     9    10    1
     5    10    11    1
     6    11    12    1
     7    12     5    1
     8     5     6    1
     9     6     7    1
    10     7     1    1
    11     1     2   am
    12     2     3    2
    13     2    18    1
    14    18    19    1
    15    19    21    1
    16    21    22    2
    17    22    23    1
    18    23    24    2
    19    24    25    1
    20    25    26    1
    21    26    27    2
    22    27    30    1
    23    30    31    1
    24    30    32    1
    25    30    33    1
    26    27    28    1
    27    28    29    2
    28     7     8    1
    29    12    13    1
    30    13    14    1
    31    14     9    1
    32     8     5    1
    33    29    21    1
    34    29    24    1
    35     1     4    1
    36    19    20    1
@<TRIPOS>MOLECULE
*****
 33 36 0 0 0
SMALL
GASTEIGER

@<TRIPOS>ATOM
      1 N         141.4691  144.1413  160.1721 N.am    1  UNL1       -0.2999
      2 C         140.1363  144.5748  160.7064 C.2     1  UNL1        0.2701
      3 O         138.9286  143.7089  160.5021 O.2     1  UNL1       -0.2706
      4 H         142.2617  144.7096  160.3062 H       1  UNL1        0.1496
      5 N         141.7713  141.0039  158.3889 N.3     1  UNL1       -0.2711
      6 C         142.0209  141.4508  159.7988 C.3     1  UNL1        0.0933
      7 C         141.5942  142.8418  159.4334 C.3     1  UNL1        0.1035
      8 C         141.3446  142.3948  158.0235 C.3     1  UNL1        0.0933
      9 C         142.1467  137.1054  156.1729 C.3     1  UNL1        0.1153
     10 C         143.2978  138.0667  156.1997 C.3     1  UNL1        0.0309
     11 C         143.1727  139.3662  156.9384 C.3     1  UNL1        0.0184
     12 C         141.8964  139.7044  157.6502 C.3     1  UNL1        0.0578
     13 C         140.7453  138.7431  157.6234 C.3     1  UNL1        0.0184
     14 C         140.8704  137.4437  156.8847 C.3     1  UNL1        0.0309
     15 O         142.2717  135.8059  155.4343 O.3     1  UNL1       -0.3562
     16 C         143.4114  134.3954  157.2949 C.3     1  UNL1        0.0346
     17 C         142.3984  134.5197  156.1957 C.3     1  UNL1        0.1421
     18 C         140.0111  145.8743  161.4451 C.3     1  UNL1        0.2850
     19 N         140.6955  146.0541  162.7678 N.pl3   1  UNL1       -0.2091
     20 H         141.2606  146.8445  162.9262 H       1  UNL1        0.2928
     21 C         140.5186  145.0296  163.8491 C.2     1  UNL1        0.3493
     22 N         139.3176  144.8814  164.7354 N.2     1  UNL1        0.0798
     23 N         139.5686  143.7337  165.6679 N.2     1  UNL1       -0.0381
     24 C         140.9247  143.1725  165.3580 C.2     1  UNL1        0.1169
     25 C         141.7007  142.0357  165.9541 C.3     1  UNL1        0.0759
     26 C         143.0639  141.6998  165.4261 C.2     1  UNL1       -0.0158
     27 C         143.6511  142.5008  164.3020 C.2     1  UNL1        0.0678
     28 C         142.8751  143.6376  163.7059 C.2     1  UNL1        0.0123
     29 C         141.5119  143.9735  164.2339 C.2     1  UNL1        0.1019
     30 C         145.0144  142.1649  163.7740 C.3     1  UNL1        0.4183
     31 F         146.3776  141.8290  163.2460 F       1  UNL1       -0.1659
     32 F         145.0633  140.9604  164.6666 F       1  UNL1       -0.1659
     33 F         144.9654  143.3694  162.8814 F       1  UNL1       -0.1659
@<TRIPOS>BOND
     1    16    17    1
     2    17    15    1
     3     9    15    1
     4     9    10    1
     5    10    11    1
     6    11    12    1
     7    12     5    1
     8     5     6    1
     9     6     7    1
    10     7     1    1
    11     1     2   am
    12     2     3    2
    13     2    18    1
    14    18    19    1
    15    19    21    1
    16    21    22    2
    17    22    23    1
    18    23    24    2
    19    24    25    1
    20    25    26    1
    21    26    27    2
    22    27    30    1
    23    30    31    1
    24    30    32    1
    25    30    33    1
    26    27    28    1
    27    28    29    2
    28     7     8    1
    29    12    13    1
    30    13    14    1
    31    14     9    1
    32     8     5    1
    33    29    21    1
    34    29    24    1
    35     1     4    1
    36    19    20    1
@<TRIPOS>MOLECULE
*****
 33 36 0 0 0
SMALL
GASTEIGER

@<TRIPOS>ATOM
      1 N         139.2115  141.4776  161.2886 N.am    1  UNL1       -0.2999
      2 C         138.2504  140.5169  160.6536 C.2     1  UNL1        0.2701
      3 O         137.4622  139.5693  161.5085 O.2     1  UNL1       -0.2706
      4 H         139.7288  142.0995  160.7275 H       1  UNL1        0.1496
      5 N         139.6289  141.5094  164.8857 N.3     1  UNL1       -0.2711
      6 C         140.4867  141.1096  163.7219 C.3     1  UNL1        0.0933
      7 C         139.3843  141.4908  162.7786 C.3     1  UNL1        0.1035
      8 C         138.5267  141.8906  163.9424 C.3     1  UNL1        0.0933
      9 C         140.1474  141.5489  169.3556 C.3     1  UNL1        0.1153
     10 C         140.5364  142.7494  168.5448 C.3     1  UNL1        0.0309
     11 C         140.3636  142.7363  167.0548 C.3     1  UNL1        0.0184
     12 C         139.8017  141.5226  166.3757 C.3     1  UNL1        0.0578
     13 C         139.4128  140.3220  167.1865 C.3     1  UNL1        0.0184
     14 C         139.5856  140.3352  168.6763 C.3     1  UNL1        0.0309
     15 O         140.3202  141.5620  170.8455 O.3     1  UNL1       -0.3562
     16 C         142.6620  140.4666  170.5871 C.3     1  UNL1        0.0346
     17 C         141.5980  141.0681  171.4566 C.3     1  UNL1        0.1421
     18 C         138.0776  140.5037  159.1637 C.3     1  UNL1        0.2850
     19 N         138.7978  139.4823  158.3341 N.pl3   1  UNL1       -0.2091
     20 H         138.2897  138.8827  157.7412 H       1  UNL1        0.2928
     21 C         140.2921  139.3746  158.4079 C.2     1  UNL1        0.3493
     22 N         141.2577  139.7493  157.3229 N.2     1  UNL1        0.0798
     23 N         142.6455  139.4795  157.8241 N.2     1  UNL1       -0.0381
     24 C         142.5376  138.9380  159.2188 C.2     1  UNL1        0.1169
     25 C         143.5759  138.4956  160.2069 C.3     1  UNL1        0.0759
     26 C         143.1596  137.9884  161.5557 C.2     1  UNL1       -0.0158
     27 C         141.7051  137.9235  161.9165 C.2     1  UNL1        0.0678
     28 C         140.6668  138.3659  160.9284 C.2     1  UNL1        0.0123
     29 C         141.0831  138.8731  159.5796 C.2     1  UNL1        0.1019
     30 C         141.2888  137.4162  163.2654 C.3     1  UNL1        0.4183
     31 F         140.8726  136.9090  164.6142 F       1  UNL1       -0.1659
     32 F         139.9161  137.1286  162.7337 F       1  UNL1       -0.1659
     33 F         142.6616  137.7039  163.7971 F       1  UNL1       -0.1659
@<TRIPOS>BOND
     1    16    17    1
     2    17    15    1
     3     9    15    1
     4     9    10    1
     5    10    11    1
     6    11    12    1
     7    12     5    1
     8     5     6    1
     9     6     7    1
    10     7     1    1
    11     1     2   am
    12     2     3    2
    13     2    18    1
    14    18    19    1
    15    19    21    1
    16    21    22    2
    17    22    23    1
    18    23    24    2
    19    24    25    1
    20    25    26    1
    21    26    27    2
    22    27    30    1
    23    30    31    1
    24    30    32    1
    25    30    33    1
    26    27    28    1
    27    28    29    2
    28     7     8    1
    29    12    13    1
    30    13    14    1
    31    14     9    1
    32     8     5    1
    33    29    21    1
    34    29    24    1
    35     1     4    1
    36    19    20    1
