@<TRIPOS>MOLECULE
*****
 34 36 0 0 0
SMALL
GASTEIGER

@<TRIPOS>ATOM
      1 C         138.9715  144.1517  164.8565 C.3     1  UNL1        0.0206
      2 C         140.2057  143.5240  165.4333 C.3     1  UNL1        0.0956
      3 C         140.2245  143.0874  166.8682 C.3     1  UNL1        0.0900
      4 N         141.4587  142.4597  167.4450 N.3     1  UNL1       -0.2698
      5 C         142.6741  142.2686  166.5870 C.3     1  UNL1        0.0915
      6 C         142.6553  142.7053  165.1521 C.3     1  UNL1        0.1131
      7 N         141.4211  143.3330  164.5753 N.3     1  UNL1       -0.1541
      8 S         141.4023  143.7697  163.1403 S.O2    1  UNL1        0.0633
      9 O         140.9586  142.3972  162.7285 O.2     1  UNL1       -0.1528
     10 O         141.8459  145.1421  163.5521 O.2     1  UNL1       -0.1528
     11 C         141.3835  144.2063  161.7054 C.ar    1  UNL1        0.1222
     12 C         140.3465  145.1811  161.2316 C.ar    1  UNL1        0.0197
     13 C         140.3278  145.6176  159.7966 C.ar    1  UNL1       -0.0004
     14 C         141.3459  145.0794  158.8355 C.ar    1  UNL1        0.0099
     15 C         142.3829  144.1046  159.3094 C.ar    1  UNL1       -0.0004
     16 C         142.4017  143.6680  160.7443 C.ar    1  UNL1        0.0197
     17 C         141.3271  145.5160  157.4006 C.3     1  UNL1        0.1945
     18 C         141.3083  145.9526  155.9657 C.3     1  UNL1        0.0428
     19 O         142.5900  146.2948  157.6210 O.3     1  UNL1       -0.3751
     20 H         142.8737  146.1965  158.5434 H       1  UNL1        0.2110
     21 C         140.0642  144.7373  157.1802 C.3     1  UNL1        0.4230
     22 F         138.8013  143.9584  156.9598 F       1  UNL1       -0.1673
     23 F         140.4599  143.3175  157.4589 F       1  UNL1       -0.1673
     24 F         139.3413  146.0063  156.8381 F       1  UNL1       -0.1673
     25 C         141.4775  142.0230  168.8800 C.3     1  UNL1        0.0807
     26 C         140.2326  141.4769  169.5141 C.3     1  UNL1        0.0832
     27 C         140.1780  140.3957  168.4758 C.3     1  UNL1        0.0100
     28 C         138.9331  139.8497  169.1099 C.3     1  UNL1        0.0010
     29 C         138.9878  140.9308  170.1482 C.3     1  UNL1        0.0100
     30 C         140.2873  142.5581  170.5524 C.2     1  UNL1        0.2198
     31 N         140.1556  143.9958  170.1458 N.am    1  UNL1       -0.3288
     32 O         140.4735  142.2014  171.9974 O.2     1  UNL1       -0.2753
     33 H         140.0334  144.2299  169.1973 H       1  UNL1        0.1449
     34 H         140.1915  144.7054  170.8273 H       1  UNL1        0.1449
@<TRIPOS>BOND
     1     2     1    1
     2     2     3    1
     3     3     4    1
     4     4    25    1
     5    25    26    1
     6    26    30    1
     7    30    31   am
     8    30    32    2
     9    26    27    1
    10    27    28    1
    11    28    29    1
    12     4     5    1
    13     5     6    1
    14     6     7    1
    15     7     8    1
    16     8     9    2
    17     8    10    2
    18     8    11    1
    19    11    12   ar
    20    12    13   ar
    21    13    14   ar
    22    14    17    1
    23    17    18    1
    24    17    19    1
    25    17    21    1
    26    21    22    1
    27    21    23    1
    28    21    24    1
    29    14    15   ar
    30    15    16   ar
    31     7     2    1
    32    16    11   ar
    33    29    26    1
    34    31    33    1
    35    31    34    1
    36    19    20    1
@<TRIPOS>MOLECULE
*****
 34 36 0 0 0
SMALL
GASTEIGER

@<TRIPOS>ATOM
      1 C         143.3384  138.2013  161.3240 C.3     1  UNL1        0.0206
      2 C         142.2363  138.2470  160.3075 C.3     1  UNL1        0.0956
      3 C         142.5353  137.9695  158.8640 C.3     1  UNL1        0.0900
      4 N         141.4332  138.0153  157.8475 N.3     1  UNL1       -0.2698
      5 C         140.0320  138.3384  158.2745 C.3     1  UNL1        0.0915
      6 C         139.7330  138.6158  159.7179 C.3     1  UNL1        0.1131
      7 N         140.8351  138.5701  160.7344 N.3     1  UNL1       -0.1541
      8 S         140.5360  138.8476  162.1779 S.O2    1  UNL1        0.0633
      9 O         140.2956  137.3852  162.4091 O.2     1  UNL1       -0.1528
     10 O         140.7764  140.3100  161.9467 O.2     1  UNL1       -0.1528
     11 C         140.2369  139.1250  163.6214 C.ar    1  UNL1        0.1222
     12 C         138.8407  139.4737  164.0444 C.ar    1  UNL1        0.0197
     13 C         138.5417  139.7511  165.4880 C.ar    1  UNL1       -0.0004
     14 C         139.6388  139.6797  166.5083 C.ar    1  UNL1        0.0099
     15 C         141.0350  139.3310  166.0853 C.ar    1  UNL1       -0.0004
     16 C         141.3341  139.0536  164.6418 C.ar    1  UNL1        0.0197
     17 C         139.3397  139.9571  167.9518 C.3     1  UNL1        0.1945
     18 C         139.0406  140.2346  169.3953 C.3     1  UNL1        0.0428
     19 O         138.2272  138.9517  167.9145 O.3     1  UNL1       -0.3751
     20 H         138.1698  138.5658  167.0264 H       1  UNL1        0.2110
     21 C         140.4521  140.9626  167.9890 C.3     1  UNL1        0.4230
     22 F         141.5646  141.9682  168.0263 F       1  UNL1       -0.1673
     23 F         139.9678  142.0728  167.1043 F       1  UNL1       -0.1673
     24 F         141.2288  140.0692  168.9103 F       1  UNL1       -0.1673
     25 C         141.7323  137.7378  156.4040 C.3     1  UNL1        0.0807
     26 C         142.9264  136.9101  156.0312 C.3     1  UNL1        0.0832
     27 C         142.1680  135.6619  156.3730 C.3     1  UNL1        0.0100
     28 C         143.3621  134.8342  156.0002 C.3     1  UNL1        0.0010
     29 C         144.1205  136.0824  155.6584 C.3     1  UNL1        0.0100
     30 C         143.6848  138.1583  155.6894 C.2     1  UNL1        0.2198
     31 N         142.9562  139.4603  155.5359 N.am    1  UNL1       -0.3288
     32 O         145.1720  138.1044  155.5011 O.2     1  UNL1       -0.2753
     33 H         141.9801  139.4957  155.6594 H       1  UNL1        0.1449
     34 H         143.4540  140.2795  155.3115 H       1  UNL1        0.1449
@<TRIPOS>BOND
     1     2     1    1
     2     2     3    1
     3     3     4    1
     4     4    25    1
     5    25    26    1
     6    26    30    1
     7    30    31   am
     8    30    32    2
     9    26    27    1
    10    27    28    1
    11    28    29    1
    12     4     5    1
    13     5     6    1
    14     6     7    1
    15     7     8    1
    16     8     9    2
    17     8    10    2
    18     8    11    1
    19    11    12   ar
    20    12    13   ar
    21    13    14   ar
    22    14    17    1
    23    17    18    1
    24    17    19    1
    25    17    21    1
    26    21    22    1
    27    21    23    1
    28    21    24    1
    29    14    15   ar
    30    15    16   ar
    31     7     2    1
    32    16    11   ar
    33    29    26    1
    34    31    33    1
    35    31    34    1
    36    19    20    1
@<TRIPOS>MOLECULE
*****
 34 36 0 0 0
SMALL
GASTEIGER

@<TRIPOS>ATOM
      1 C         140.1914  145.0314  162.8108 C.3     1  UNL1        0.0206
      2 C         141.2212  144.3146  161.9889 C.3     1  UNL1        0.0956
      3 C         141.3612  144.6219  160.5274 C.3     1  UNL1        0.0900
      4 N         142.3910  143.9051  159.7055 N.3     1  UNL1       -0.2698
      5 C         143.2808  142.8808  160.3450 C.3     1  UNL1        0.0915
      6 C         143.1409  142.5735  161.8064 C.3     1  UNL1        0.1131
      7 N         142.1111  143.2903  162.6284 N.3     1  UNL1       -0.1541
      8 S         141.9712  142.9829  164.0899 S.O2    1  UNL1        0.0633
      9 O         142.9854  144.0408  164.4095 O.2     1  UNL1       -0.1528
     10 O         140.9570  141.9250  163.7703 O.2     1  UNL1       -0.1528
     11 C         141.8313  142.6756  165.5514 C.ar    1  UNL1        0.1222
     12 C         143.0464  142.3530  166.3696 C.ar    1  UNL1        0.0197
     13 C         142.9065  142.0456  167.8311 C.ar    1  UNL1       -0.0004
     14 C         141.5515  142.0608  168.4744 C.ar    1  UNL1        0.0099
     15 C         140.3364  142.3834  167.6561 C.ar    1  UNL1       -0.0004
     16 C         140.4763  142.6907  166.1947 C.ar    1  UNL1        0.0197
     17 C         141.4117  141.7535  169.9358 C.3     1  UNL1        0.1945
     18 C         141.2717  141.4461  171.3974 C.3     1  UNL1        0.0428
     19 O         142.1331  140.4543  169.7316 O.3     1  UNL1       -0.3751
     20 H         142.3738  140.3617  168.7966 H       1  UNL1        0.2110
     21 C         140.6902  143.0526  170.1400 C.3     1  UNL1        0.4230
     22 F         139.9688  144.3519  170.3442 F       1  UNL1       -0.1673
     23 F         141.7713  144.0877  170.0406 F       1  UNL1       -0.1673
     24 F         139.3960  142.3099  170.2934 F       1  UNL1       -0.1673
     25 C         142.5309  144.2125  158.2439 C.3     1  UNL1        0.0807
     26 C         141.3202  144.2129  157.3584 C.3     1  UNL1        0.0832
     27 C         141.2758  142.7147  157.4183 C.3     1  UNL1        0.0100
     28 C         140.0651  142.7151  156.5327 C.3     1  UNL1        0.0010
     29 C         140.1095  144.2133  156.4728 C.3     1  UNL1        0.0100
     30 C         141.3645  145.7110  157.2985 C.2     1  UNL1        0.2198
     31 N         142.6160  146.4405  157.6876 N.am    1  UNL1       -0.3288
     32 O         140.1573  146.4797  156.8494 O.2     1  UNL1       -0.2753
     33 H         143.4084  145.9360  157.9824 H       1  UNL1        0.1449
     34 H         142.6451  147.4238  157.6483 H       1  UNL1        0.1449
@<TRIPOS>BOND
     1     2     1    1
     2     2     3    1
     3     3     4    1
     4     4    25    1
     5    25    26    1
     6    26    30    1
     7    30    31   am
     8    30    32    2
     9    26    27    1
    10    27    28    1
    11    28    29    1
    12     4     5    1
    13     5     6    1
    14     6     7    1
    15     7     8    1
    16     8     9    2
    17     8    10    2
    18     8    11    1
    19    11    12   ar
    20    12    13   ar
    21    13    14   ar
    22    14    17    1
    23    17    18    1
    24    17    19    1
    25    17    21    1
    26    21    22    1
    27    21    23    1
    28    21    24    1
    29    14    15   ar
    30    15    16   ar
    31     7     2    1
    32    16    11   ar
    33    29    26    1
    34    31    33    1
    35    31    34    1
    36    19    20    1
@<TRIPOS>MOLECULE
*****
 34 36 0 0 0
SMALL
GASTEIGER

@<TRIPOS>ATOM
      1 C         144.1962  142.5914  164.0821 C.3     1  UNL1        0.0206
      2 C         142.9886  142.6814  164.9674 C.3     1  UNL1        0.0956
      3 C         143.0684  142.2241  166.3937 C.3     1  UNL1        0.0900
      4 N         141.8608  142.3141  167.2789 N.3     1  UNL1       -0.2698
      5 C         140.5734  142.8615  166.7378 C.3     1  UNL1        0.0915
      6 C         140.4935  143.3189  165.3115 C.3     1  UNL1        0.1131
      7 N         141.7011  143.2288  164.4263 N.3     1  UNL1       -0.1541
      8 S         141.6212  143.6862  162.9999 S.O2    1  UNL1        0.0633
      9 O         141.2345  142.3000  162.5771 O.2     1  UNL1       -0.1528
     10 O         142.0079  145.0725  163.4227 O.2     1  UNL1       -0.1528
     11 C         141.5413  144.1436  161.5736 C.ar    1  UNL1        0.1222
     12 C         140.4694  145.1049  161.1531 C.ar    1  UNL1        0.0197
     13 C         140.3895  145.5622  159.7267 C.ar    1  UNL1       -0.0004
     14 C         141.3816  145.0583  158.7209 C.ar    1  UNL1        0.0099
     15 C         142.4535  144.0969  159.1413 C.ar    1  UNL1       -0.0004
     16 C         142.5334  143.6396  160.5676 C.ar    1  UNL1        0.0197
     17 C         141.3017  145.5156  157.2946 C.3     1  UNL1        0.1945
     18 C         141.2217  145.9729  155.8682 C.3     1  UNL1        0.0428
     19 O         142.5581  146.3137  157.4801 O.3     1  UNL1       -0.3751
     20 H         142.8776  146.2069  158.3897 H       1  UNL1        0.2110
     21 C         140.0453  144.7175  157.1090 C.3     1  UNL1        0.4230
     22 F         138.7888  143.9193  156.9235 F       1  UNL1       -0.1673
     23 F         140.4777  143.3003  157.3424 F       1  UNL1       -0.1673
     24 F         139.2862  145.9791  156.8223 F       1  UNL1       -0.1673
     25 C         141.9407  141.8567  168.7053 C.3     1  UNL1        0.0807
     26 C         140.7187  141.8939  169.5744 C.3     1  UNL1        0.0832
     27 C         140.3056  140.5502  169.0510 C.3     1  UNL1        0.0100
     28 C         139.0836  140.5875  169.9201 C.3     1  UNL1        0.0010
     29 C         139.4967  141.9311  170.4434 C.3     1  UNL1        0.0100
     30 C         141.1318  143.2376  170.0977 C.2     1  UNL1        0.2198
     31 N         140.1582  144.3786  170.0863 N.am    1  UNL1       -0.3288
     32 O         142.5185  143.4403  170.6323 O.2     1  UNL1       -0.2753
     33 H         139.2480  144.2456  169.7354 H       1  UNL1        0.1449
     34 H         140.4294  145.2605  170.4298 H       1  UNL1        0.1449
@<TRIPOS>BOND
     1     2     1    1
     2     2     3    1
     3     3     4    1
     4     4    25    1
     5    25    26    1
     6    26    30    1
     7    30    31   am
     8    30    32    2
     9    26    27    1
    10    27    28    1
    11    28    29    1
    12     4     5    1
    13     5     6    1
    14     6     7    1
    15     7     8    1
    16     8     9    2
    17     8    10    2
    18     8    11    1
    19    11    12   ar
    20    12    13   ar
    21    13    14   ar
    22    14    17    1
    23    17    18    1
    24    17    19    1
    25    17    21    1
    26    21    22    1
    27    21    23    1
    28    21    24    1
    29    14    15   ar
    30    15    16   ar
    31     7     2    1
    32    16    11   ar
    33    29    26    1
    34    31    33    1
    35    31    34    1
    36    19    20    1
@<TRIPOS>MOLECULE
*****
 34 36 0 0 0
SMALL
GASTEIGER

@<TRIPOS>ATOM
      1 C         140.5157  145.4995  162.7753 C.3     1  UNL1        0.0206
      2 C         141.3381  144.5821  161.9196 C.3     1  UNL1        0.0956
      3 C         141.4784  144.8516  160.4508 C.3     1  UNL1        0.0900
      4 N         142.3007  143.9342  159.5951 N.3     1  UNL1       -0.2698
      5 C         142.9828  142.7473  160.2083 C.3     1  UNL1        0.0915
      6 C         142.8425  142.4778  161.6772 C.3     1  UNL1        0.1131
      7 N         142.0201  143.3952  162.5329 N.3     1  UNL1       -0.1541
      8 S         141.8798  143.1257  164.0018 S.O2    1  UNL1        0.0633
      9 O         140.6437  142.3188  163.7357 O.2     1  UNL1       -0.1528
     10 O         143.1159  143.9326  164.2680 O.2     1  UNL1       -0.1528
     11 C         141.7395  142.8561  165.4707 C.ar    1  UNL1        0.1222
     12 C         140.4139  143.0498  166.1455 C.ar    1  UNL1        0.0197
     13 C         140.2737  142.7802  167.6144 C.ar    1  UNL1       -0.0004
     14 C         141.4589  142.3170  168.4085 C.ar    1  UNL1        0.0099
     15 C         142.7845  142.1233  167.7337 C.ar    1  UNL1       -0.0004
     16 C         142.9248  142.3929  166.2648 C.ar    1  UNL1        0.0197
     17 C         141.3186  142.0474  169.8774 C.3     1  UNL1        0.1945
     18 C         141.1782  141.7778  171.3463 C.3     1  UNL1        0.0428
     19 O         142.4723  142.9646  170.1559 O.3     1  UNL1       -0.3751
     20 H         142.8065  143.3267  169.3204 H       1  UNL1        0.2110
     21 C         140.1649  141.1303  169.5988 C.3     1  UNL1        0.4230
     22 F         139.0111  140.2130  169.3203 F       1  UNL1       -0.1673
     23 F         140.7803  139.9936  168.8377 F       1  UNL1       -0.1673
     24 F         139.2427  142.0730  170.3138 F       1  UNL1       -0.1673
     25 C         142.4410  144.2037  158.1262 C.3     1  UNL1        0.0807
     26 C         141.2223  144.2540  157.2532 C.3     1  UNL1        0.0832
     27 C         141.1506  142.7558  157.2669 C.3     1  UNL1        0.0100
     28 C         139.9319  142.8061  156.3939 C.3     1  UNL1        0.0010
     29 C         140.0036  144.3043  156.3801 C.3     1  UNL1        0.0100
     30 C         141.2940  145.7523  157.2394 C.2     1  UNL1        0.2198
     31 N         142.5756  146.4451  157.5962 N.am    1  UNL1       -0.3288
     32 O         140.0840  146.5576  156.8690 O.2     1  UNL1       -0.2753
     33 H         143.3698  145.9165  157.8393 H       1  UNL1        0.1449
     34 H         142.6226  147.4284  157.5872 H       1  UNL1        0.1449
@<TRIPOS>BOND
     1     2     1    1
     2     2     3    1
     3     3     4    1
     4     4    25    1
     5    25    26    1
     6    26    30    1
     7    30    31   am
     8    30    32    2
     9    26    27    1
    10    27    28    1
    11    28    29    1
    12     4     5    1
    13     5     6    1
    14     6     7    1
    15     7     8    1
    16     8     9    2
    17     8    10    2
    18     8    11    1
    19    11    12   ar
    20    12    13   ar
    21    13    14   ar
    22    14    17    1
    23    17    18    1
    24    17    19    1
    25    17    21    1
    26    21    22    1
    27    21    23    1
    28    21    24    1
    29    14    15   ar
    30    15    16   ar
    31     7     2    1
    32    16    11   ar
    33    29    26    1
    34    31    33    1
    35    31    34    1
    36    19    20    1
@<TRIPOS>MOLECULE
*****
 34 36 0 0 0
SMALL
GASTEIGER

@<TRIPOS>ATOM
      1 C         140.3101  145.2139  162.5731 C.3     1  UNL1        0.0206
      2 C         141.3272  144.4475  161.7806 C.3     1  UNL1        0.0956
      3 C         141.4963  144.7193  160.3152 C.3     1  UNL1        0.0900
      4 N         142.5134  143.9529  159.5226 N.3     1  UNL1       -0.2698
      5 C         143.3613  142.9146  160.1955 C.3     1  UNL1        0.0915
      6 C         143.1922  142.6427  161.6609 C.3     1  UNL1        0.1131
      7 N         142.1752  143.4092  162.4534 N.3     1  UNL1       -0.1541
      8 S         142.0061  143.1373  163.9189 S.O2    1  UNL1        0.0633
      9 O         143.0065  144.2097  164.2333 O.2     1  UNL1       -0.1528
     10 O         141.0056  142.0648  163.6046 O.2     1  UNL1       -0.1528
     11 C         141.8371  142.8654  165.3843 C.ar    1  UNL1        0.1222
     12 C         142.9994  142.3736  166.1949 C.ar    1  UNL1        0.0197
     13 C         142.8303  142.1018  167.6604 C.ar    1  UNL1       -0.0004
     14 C         141.4989  142.3217  168.3152 C.ar    1  UNL1        0.0099
     15 C         140.3365  142.8136  167.5047 C.ar    1  UNL1       -0.0004
     16 C         140.5056  143.0854  166.0393 C.ar    1  UNL1        0.0197
     17 C         141.3299  142.0499  169.7806 C.3     1  UNL1        0.1945
     18 C         141.1608  141.7780  171.2461 C.3     1  UNL1        0.0428
     19 O         142.4936  142.9473  170.0813 O.3     1  UNL1       -0.3751
     20 H         142.8475  143.3064  169.2527 H       1  UNL1        0.2110
     21 C         140.1662  141.1525  169.4799 C.3     1  UNL1        0.4230
     22 F         139.0024  140.2551  169.1792 F       1  UNL1       -0.1673
     23 F         140.7751  140.0098  168.7228 F       1  UNL1       -0.1673
     24 F         139.2483  142.1065  170.1853 F       1  UNL1       -0.1673
     25 C         142.6824  144.2248  158.0571 C.3     1  UNL1        0.0807
     26 C         141.4834  144.5220  157.2063 C.3     1  UNL1        0.0832
     27 C         141.9159  145.9542  157.0971 C.3     1  UNL1        0.0100
     28 C         140.7168  146.2514  156.2463 C.3     1  UNL1        0.0010
     29 C         140.2843  144.8193  156.3554 C.3     1  UNL1        0.0100
     30 C         141.0509  143.0899  157.3155 C.2     1  UNL1        0.2198
     31 N         142.0019  141.9892  156.9492 N.am    1  UNL1       -0.3288
     32 O         139.6674  142.7584  157.7908 O.2     1  UNL1       -0.2753
     33 H         142.9099  142.2068  156.6372 H       1  UNL1        0.1449
     34 H         141.7180  141.0493  157.0209 H       1  UNL1        0.1449
@<TRIPOS>BOND
     1     2     1    1
     2     2     3    1
     3     3     4    1
     4     4    25    1
     5    25    26    1
     6    26    30    1
     7    30    31   am
     8    30    32    2
     9    26    27    1
    10    27    28    1
    11    28    29    1
    12     4     5    1
    13     5     6    1
    14     6     7    1
    15     7     8    1
    16     8     9    2
    17     8    10    2
    18     8    11    1
    19    11    12   ar
    20    12    13   ar
    21    13    14   ar
    22    14    17    1
    23    17    18    1
    24    17    19    1
    25    17    21    1
    26    21    22    1
    27    21    23    1
    28    21    24    1
    29    14    15   ar
    30    15    16   ar
    31     7     2    1
    32    16    11   ar
    33    29    26    1
    34    31    33    1
    35    31    34    1
    36    19    20    1
@<TRIPOS>MOLECULE
*****
 34 36 0 0 0
SMALL
GASTEIGER

@<TRIPOS>ATOM
      1 C         144.1245  141.5605  162.3400 C.3     1  UNL1        0.0206
      2 C         143.2551  142.6059  161.7067 C.3     1  UNL1        0.0956
      3 C         143.3680  142.8858  160.2374 C.3     1  UNL1        0.0900
      4 N         142.4986  143.9313  159.6040 N.3     1  UNL1       -0.2698
      5 C         141.5163  144.6969  160.4400 C.3     1  UNL1        0.0915
      6 C         141.4034  144.4170  161.9092 C.3     1  UNL1        0.1131
      7 N         142.2727  143.3715  162.5426 N.3     1  UNL1       -0.1541
      8 S         142.1598  143.0917  164.0120 S.O2    1  UNL1        0.0633
      9 O         143.2068  144.1291  164.2900 O.2     1  UNL1       -0.1528
     10 O         141.1127  142.0543  163.7339 O.2     1  UNL1       -0.1528
     11 C         142.0468  142.8119  165.4813 C.ar    1  UNL1        0.1222
     12 C         143.2639  142.4211  166.2661 C.ar    1  UNL1        0.0197
     13 C         143.1509  142.1413  167.7355 C.ar    1  UNL1       -0.0004
     14 C         141.8209  142.2523  168.4200 C.ar    1  UNL1        0.0099
     15 C         140.6037  142.6430  167.6352 C.ar    1  UNL1       -0.0004
     16 C         140.7167  142.9228  166.1659 C.ar    1  UNL1        0.0197
     17 C         141.7079  141.9725  169.8893 C.3     1  UNL1        0.1945
     18 C         141.5950  141.6926  171.3587 C.3     1  UNL1        0.0428
     19 O         141.3095  143.3983  170.1302 O.3     1  UNL1       -0.3751
     20 H         141.2925  143.8763  169.2863 H       1  UNL1        0.2110
     21 C         142.1064  140.5466  169.6484 C.3     1  UNL1        0.4230
     22 F         142.5048  139.1206  169.4074 F       1  UNL1       -0.1673
     23 F         140.9287  139.9569  168.9305 F       1  UNL1       -0.1673
     24 F         143.4196  140.7986  170.3281 F       1  UNL1       -0.1673
     25 C         142.6116  144.2112  158.1346 C.3     1  UNL1        0.0807
     26 C         141.3824  144.5246  157.3342 C.3     1  UNL1        0.0832
     27 C         141.8443  145.9434  157.1805 C.3     1  UNL1        0.0100
     28 C         140.6150  146.2569  156.3801 C.3     1  UNL1        0.0010
     29 C         140.1531  144.8381  156.5338 C.3     1  UNL1        0.0100
     30 C         140.9205  143.1058  157.4879 C.2     1  UNL1        0.2198
     31 N         141.8236  141.9759  157.0909 N.am    1  UNL1       -0.3288
     32 O         139.5555  142.8169  158.0385 O.2     1  UNL1       -0.2753
     33 H         142.7195  142.1655  156.7295 H       1  UNL1        0.1449
     34 H         141.5204  141.0447  157.1918 H       1  UNL1        0.1449
@<TRIPOS>BOND
     1     2     1    1
     2     2     3    1
     3     3     4    1
     4     4    25    1
     5    25    26    1
     6    26    30    1
     7    30    31   am
     8    30    32    2
     9    26    27    1
    10    27    28    1
    11    28    29    1
    12     4     5    1
    13     5     6    1
    14     6     7    1
    15     7     8    1
    16     8     9    2
    17     8    10    2
    18     8    11    1
    19    11    12   ar
    20    12    13   ar
    21    13    14   ar
    22    14    17    1
    23    17    18    1
    24    17    19    1
    25    17    21    1
    26    21    22    1
    27    21    23    1
    28    21    24    1
    29    14    15   ar
    30    15    16   ar
    31     7     2    1
    32    16    11   ar
    33    29    26    1
    34    31    33    1
    35    31    34    1
    36    19    20    1
@<TRIPOS>MOLECULE
*****
 34 36 0 0 0
SMALL
GASTEIGER

@<TRIPOS>ATOM
      1 C         144.6670  142.6918  164.5230 C.3     1  UNL1        0.0206
      2 C         143.6145  141.7617  165.0493 C.3     1  UNL1        0.0956
      3 C         143.3153  141.7221  166.5186 C.3     1  UNL1        0.0900
      4 N         142.2628  140.7920  167.0450 N.3     1  UNL1       -0.2698
      5 C         141.5094  139.9014  166.1020 C.3     1  UNL1        0.0915
      6 C         141.8086  139.9410  164.6327 C.3     1  UNL1        0.1131
      7 N         142.8611  140.8711  164.1064 N.3     1  UNL1       -0.1541
      8 S         143.1602  140.9106  162.6370 S.O2    1  UNL1        0.0633
      9 O         142.1058  141.9610  162.4506 O.2     1  UNL1       -0.1528
     10 O         144.2147  139.8602  162.8233 O.2     1  UNL1       -0.1528
     11 C         143.4593  140.9502  161.1677 C.ar    1  UNL1        0.1222
     12 C         143.3109  139.7091  160.3384 C.ar    1  UNL1        0.0197
     13 C         143.6100  139.7487  158.8690 C.ar    1  UNL1       -0.0004
     14 C         144.0575  141.0294  158.2290 C.ar    1  UNL1        0.0099
     15 C         144.2059  142.2704  159.0582 C.ar    1  UNL1       -0.0004
     16 C         143.9068  142.2309  160.5276 C.ar    1  UNL1        0.0197
     17 C         144.3566  141.0689  156.7596 C.3     1  UNL1        0.1945
     18 C         144.6556  141.1085  155.2902 C.3     1  UNL1        0.0428
     19 O         145.4459  140.0562  156.9541 O.3     1  UNL1       -0.3751
     20 H         145.4983  139.8138  157.8918 H       1  UNL1        0.2110
     21 C         143.2673  142.0816  156.5652 C.3     1  UNL1        0.4230
     22 F         142.1779  143.0944  156.3707 F       1  UNL1       -0.1673
     23 F         142.0160  141.3462  156.9440 F       1  UNL1       -0.1673
     24 F         144.2852  143.0923  156.1262 F       1  UNL1       -0.1673
     25 C         141.9637  140.7524  168.5144 C.3     1  UNL1        0.0807
     26 C         141.9098  142.0271  169.3033 C.3     1  UNL1        0.0832
     27 C         140.5550  142.3236  168.7318 C.3     1  UNL1        0.0100
     28 C         140.5012  143.5982  169.5207 C.3     1  UNL1        0.0010
     29 C         141.8560  143.3017  170.0923 C.3     1  UNL1        0.0100
     30 C         143.2646  141.7305  169.8749 C.2     1  UNL1        0.2198
     31 N         143.5099  140.4348  170.5896 N.am    1  UNL1       -0.3288
     32 O         144.3741  142.7298  169.7317 O.2     1  UNL1       -0.2753
     33 H         142.7817  139.7790  170.6836 H       1  UNL1        0.1449
     34 H         144.3991  140.2402  170.9647 H       1  UNL1        0.1449
@<TRIPOS>BOND
     1     2     1    1
     2     2     3    1
     3     3     4    1
     4     4    25    1
     5    25    26    1
     6    26    30    1
     7    30    31   am
     8    30    32    2
     9    26    27    1
    10    27    28    1
    11    28    29    1
    12     4     5    1
    13     5     6    1
    14     6     7    1
    15     7     8    1
    16     8     9    2
    17     8    10    2
    18     8    11    1
    19    11    12   ar
    20    12    13   ar
    21    13    14   ar
    22    14    17    1
    23    17    18    1
    24    17    19    1
    25    17    21    1
    26    21    22    1
    27    21    23    1
    28    21    24    1
    29    14    15   ar
    30    15    16   ar
    31     7     2    1
    32    16    11   ar
    33    29    26    1
    34    31    33    1
    35    31    34    1
    36    19    20    1
@<TRIPOS>MOLECULE
*****
 34 36 0 0 0
SMALL
GASTEIGER

@<TRIPOS>ATOM
      1 C         143.7573  140.7657  164.4785 C.3     1  UNL1        0.0206
      2 C         142.5969  140.3752  165.3452 C.3     1  UNL1        0.0956
      3 C         142.6192  140.6849  166.8127 C.3     1  UNL1        0.0900
      4 N         141.4589  140.2943  167.6793 N.3     1  UNL1       -0.2698
      5 C         140.2763  139.5942  167.0785 C.3     1  UNL1        0.0915
      6 C         140.2539  139.2845  165.6110 C.3     1  UNL1        0.1131
      7 N         141.4143  139.6750  164.7444 N.3     1  UNL1       -0.1541
      8 S         141.3919  139.3653  163.2768 S.O2    1  UNL1        0.0633
      9 O         140.6974  140.6683  163.0125 O.2     1  UNL1       -0.1528
     10 O         142.0864  138.0624  163.5411 O.2     1  UNL1       -0.1528
     11 C         141.3695  139.0557  161.8093 C.ar    1  UNL1        0.1222
     12 C         140.1990  139.4776  160.9715 C.ar    1  UNL1        0.0197
     13 C         140.1767  139.1679  159.5040 C.ar    1  UNL1       -0.0004
     14 C         141.3248  138.4364  158.8743 C.ar    1  UNL1        0.0099
     15 C         142.4953  138.0145  159.7120 C.ar    1  UNL1       -0.0004
     16 C         142.5177  138.3241  161.1795 C.ar    1  UNL1        0.0197
     17 C         141.3024  138.1267  157.4068 C.3     1  UNL1        0.1945
     18 C         141.2801  137.8171  155.9392 C.3     1  UNL1        0.0428
     19 O         139.9925  137.4160  157.5767 O.3     1  UNL1       -0.3751
     20 H         139.7238  137.4515  158.5081 H       1  UNL1        0.2110
     21 C         142.6123  138.8375  157.2368 C.3     1  UNL1        0.4230
     22 F         143.9223  139.5483  157.0669 F       1  UNL1       -0.1673
     23 F         142.2870  140.2726  157.5276 F       1  UNL1       -0.1673
     24 F         143.2744  137.5357  156.8948 F       1  UNL1       -0.1673
     25 C         141.4813  140.6040  169.1469 C.3     1  UNL1        0.0807
     26 C         141.7045  142.0122  169.6129 C.3     1  UNL1        0.0832
     27 C         140.2793  142.3464  169.2858 C.3     1  UNL1        0.0100
     28 C         140.5025  143.7546  169.7518 C.3     1  UNL1        0.0010
     29 C         141.9278  143.4204  170.0789 C.3     1  UNL1        0.0100
     30 C         143.1298  141.6780  169.9400 C.2     1  UNL1        0.2198
     31 N         143.4741  140.3307  170.5022 N.am    1  UNL1       -0.3288
     32 O         144.2106  142.6911  169.7049 O.2     1  UNL1       -0.2753
     33 H         142.7647  139.6658  170.6566 H       1  UNL1        0.1449
     34 H         144.4096  140.1114  170.7169 H       1  UNL1        0.1449
@<TRIPOS>BOND
     1     2     1    1
     2     2     3    1
     3     3     4    1
     4     4    25    1
     5    25    26    1
     6    26    30    1
     7    30    31   am
     8    30    32    2
     9    26    27    1
    10    27    28    1
    11    28    29    1
    12     4     5    1
    13     5     6    1
    14     6     7    1
    15     7     8    1
    16     8     9    2
    17     8    10    2
    18     8    11    1
    19    11    12   ar
    20    12    13   ar
    21    13    14   ar
    22    14    17    1
    23    17    18    1
    24    17    19    1
    25    17    21    1
    26    21    22    1
    27    21    23    1
    28    21    24    1
    29    14    15   ar
    30    15    16   ar
    31     7     2    1
    32    16    11   ar
    33    29    26    1
    34    31    33    1
    35    31    34    1
    36    19    20    1
