@<TRIPOS>MOLECULE
*****
 37 42 0 0 0
SMALL
GASTEIGER

@<TRIPOS>ATOM
      1 C         140.1812  145.8753  160.0564 C.3     1  UNL1        0.0666
      2 C         139.8838  146.1271  161.5049 C.3     1  UNL1        0.0294
      3 C         138.6851  145.4926  162.1459 C.3     1  UNL1        0.0730
      4 C         142.0341  140.9927  168.5118 C.ar    1  UNL1        0.0882
      5 N         141.0467  139.8787  168.3274 N.ar    1  UNL1       -0.2427
      6 C         140.1387  140.2474  167.1917 C.ar    1  UNL1        0.0871
      7 C         138.9789  139.5346  166.5619 C.ar    1  UNL1        0.0193
      8 C         138.2452  140.1636  165.4147 C.ar    1  UNL1       -0.0030
      9 C         138.6715  141.5056  164.8973 C.ar    1  UNL1       -0.0241
     10 C         139.8313  142.2183  165.5271 C.ar    1  UNL1       -0.0172
     11 C         140.5649  141.5893  166.6743 C.ar    1  UNL1        0.0439
     12 S         141.7363  142.0499  167.4902 S.2     1  UNL1       -0.0711
     13 C         140.4157  143.5524  165.1684 C.3     1  UNL1        0.0439
     14 C         139.9845  144.5032  164.0913 C.3     1  UNL1        0.0768
     15 N         138.8626  144.3547  163.1070 N.3     1  UNL1       -0.2720
     16 C         137.8946  143.2188  162.9565 C.3     1  UNL1        0.0768
     17 C         137.8095  141.9508  163.7533 C.3     1  UNL1        0.0434
     18 C         143.8392  142.3319  169.8149 C.3     1  UNL1        0.0073
     19 C         143.1273  141.0411  169.5377 C.3     1  UNL1        0.0526
     20 S         141.1634  144.8108  159.6665 S.3     1  UNL1       -0.0756
     21 C         141.5019  143.7130  160.6310 C.ar    1  UNL1        0.1932
     22 N         142.6629  143.7008  161.5807 N.ar    1  UNL1       -0.1221
     23 N         142.6175  142.4150  162.3518 N.ar    1  UNL1       -0.1282
     24 C         141.4285  141.6325  161.8786 C.ar    1  UNL1        0.1669
     25 N         140.7390  142.4347  160.8150 N.ar    1  UNL1       -0.2884
     26 C         139.5035  142.0297  160.0670 C.3     1  UNL1        0.1340
     27 C         141.0035  140.2845  162.3807 C.ar    1  UNL1        0.0374
     28 C         139.8460  139.5765  161.7411 C.ar    1  UNL1        0.0031
     29 C         139.4210  138.2285  162.2433 C.ar    1  UNL1        0.0016
     30 C         140.1534  137.5883  163.3850 C.ar    1  UNL1        0.0191
     31 C         141.3109  138.2962  164.0247 C.ar    1  UNL1        0.0810
     32 N         142.0434  137.6561  165.1664 N.ar    1  UNL1       -0.2497
     33 C         143.2009  138.3640  165.8061 C.ar    1  UNL1        0.0593
     34 C         143.9334  137.7239  166.9479 C.3     1  UNL1        0.0521
     35 C         143.6258  139.7121  165.3039 C.ar    1  UNL1        0.0147
     36 C         142.8934  140.3522  164.1621 C.ar    1  UNL1        0.0028
     37 C         141.7359  139.6443  163.5225 C.ar    1  UNL1        0.0206
@<TRIPOS>BOND
     1    18    19    1
     2    19     4    1
     3     4     5   ar
     4     5     6   ar
     5     6     7   ar
     6     7     8   ar
     7     8     9   ar
     8     9    10   ar
     9    10    11   ar
    10    11    12   ar
    11    10    13    1
    12    13    14    1
    13    14    15    1
    14    15     3    1
    15     3     2    1
    16     2     1    1
    17     1    20    1
    18    20    21    1
    19    21    22   ar
    20    22    23   ar
    21    23    24   ar
    22    24    27    1
    23    27    28   ar
    24    28    29   ar
    25    29    30   ar
    26    30    31   ar
    27    31    32   ar
    28    32    33   ar
    29    33    34    1
    30    33    35   ar
    31    35    36   ar
    32    36    37   ar
    33    24    25   ar
    34    25    26    1
    35    15    16    1
    36    16    17    1
    37    12     4   ar
    38    25    21   ar
    39    11     6   ar
    40    37    27   ar
    41    17     9    1
    42    37    31   ar
@<TRIPOS>MOLECULE
*****
 37 42 0 0 0
SMALL
GASTEIGER

@<TRIPOS>ATOM
      1 C         139.9003  144.6302  157.9608 C.3     1  UNL1        0.0666
      2 C         139.9841  143.2375  157.4100 C.3     1  UNL1        0.0294
      3 C         138.9213  142.2332  157.7448 C.3     1  UNL1        0.0730
      4 C         142.5922  138.7515  164.5560 C.ar    1  UNL1        0.0882
      5 N         141.3992  137.8860  164.8347 N.ar    1  UNL1       -0.2427
      6 C         140.3653  138.1701  163.7857 C.ar    1  UNL1        0.0871
      7 C         138.9909  137.6152  163.5548 C.ar    1  UNL1        0.0193
      8 C         138.1705  138.1015  162.3969 C.ar    1  UNL1       -0.0030
      9 C         138.7247  139.1425  161.4699 C.ar    1  UNL1       -0.0241
     10 C         140.0989  139.6973  161.7008 C.ar    1  UNL1       -0.0172
     11 C         140.9193  139.2111  162.8587 C.ar    1  UNL1        0.0439
     12 S         142.2956  139.5704  163.3348 S.2     1  UNL1       -0.0711
     13 C         140.8357  140.7326  160.9037 C.3     1  UNL1        0.0439
     14 C         140.3800  141.4688  159.6787 C.3     1  UNL1        0.0768
     15 N         139.0751  141.3515  158.9485 N.3     1  UNL1       -0.2720
     16 C         137.9035  140.4691  159.2627 C.3     1  UNL1        0.0768
     17 C         137.7475  139.4860  160.3849 C.3     1  UNL1        0.0434
     18 C         145.1048  139.3787  164.7635 C.3     1  UNL1        0.0073
     19 C         143.8592  138.7911  165.3578 C.3     1  UNL1        0.0526
     20 S         141.0580  145.2074  158.7199 S.3     1  UNL1       -0.0756
     21 C         141.0697  145.1610  160.2192 C.ar    1  UNL1        0.1932
     22 N         140.1507  145.9176  161.1319 N.ar    1  UNL1       -0.1221
     23 N         140.5154  145.5742  162.5457 N.ar    1  UNL1       -0.1282
     24 C         141.6599  144.6053  162.5068 C.ar    1  UNL1        0.1669
     25 N         142.0025  144.3500  161.0689 N.ar    1  UNL1       -0.2884
     26 C         143.0874  143.4429  160.5688 C.3     1  UNL1        0.1340
     27 C         142.3421  143.9984  163.6969 C.ar    1  UNL1        0.0374
     28 C         143.7554  144.3783  164.0259 C.ar    1  UNL1        0.0031
     29 C         144.4376  143.7714  165.2159 C.ar    1  UNL1        0.0016
     30 C         143.7065  142.7845  166.0771 C.ar    1  UNL1        0.0191
     31 C         142.2932  142.4046  165.7481 C.ar    1  UNL1        0.0810
     32 N         141.5621  141.4177  166.6092 N.ar    1  UNL1       -0.2497
     33 C         140.1487  141.0378  166.2803 C.ar    1  UNL1        0.0593
     34 C         139.4176  140.0509  167.1414 C.3     1  UNL1        0.0521
     35 C         139.4666  141.6448  165.0902 C.ar    1  UNL1        0.0147
     36 C         140.1977  142.6316  164.2291 C.ar    1  UNL1        0.0028
     37 C         141.6110  143.0115  164.5580 C.ar    1  UNL1        0.0206
@<TRIPOS>BOND
     1    18    19    1
     2    19     4    1
     3     4     5   ar
     4     5     6   ar
     5     6     7   ar
     6     7     8   ar
     7     8     9   ar
     8     9    10   ar
     9    10    11   ar
    10    11    12   ar
    11    10    13    1
    12    13    14    1
    13    14    15    1
    14    15     3    1
    15     3     2    1
    16     2     1    1
    17     1    20    1
    18    20    21    1
    19    21    22   ar
    20    22    23   ar
    21    23    24   ar
    22    24    27    1
    23    27    28   ar
    24    28    29   ar
    25    29    30   ar
    26    30    31   ar
    27    31    32   ar
    28    32    33   ar
    29    33    34    1
    30    33    35   ar
    31    35    36   ar
    32    36    37   ar
    33    24    25   ar
    34    25    26    1
    35    15    16    1
    36    16    17    1
    37    12     4   ar
    38    25    21   ar
    39    11     6   ar
    40    37    27   ar
    41    17     9    1
    42    37    31   ar
@<TRIPOS>MOLECULE
*****
 37 42 0 0 0
SMALL
GASTEIGER

@<TRIPOS>ATOM
      1 C         140.1712  144.1970  157.1845 C.3     1  UNL1        0.0666
      2 C         140.3997  145.3769  158.0822 C.3     1  UNL1        0.0294
      3 C         141.5010  145.3428  159.1000 C.3     1  UNL1        0.0730
      4 C         142.1104  140.6160  166.1197 C.ar    1  UNL1        0.0882
      5 N         141.0712  141.4291  166.8332 N.ar    1  UNL1       -0.2427
      6 C         140.6062  142.5081  165.9008 C.ar    1  UNL1        0.0871
      7 C         139.5953  143.6049  166.0595 C.ar    1  UNL1        0.0193
      8 C         139.3362  144.5556  164.9285 C.ar    1  UNL1       -0.0030
      9 C         140.0880  144.4093  163.6387 C.ar    1  UNL1       -0.0241
     10 C         141.0988  143.3126  163.4800 C.ar    1  UNL1       -0.0172
     11 C         141.3580  142.3620  164.6110 C.ar    1  UNL1        0.0439
     12 S         142.2876  141.1926  164.7463 S.2     1  UNL1       -0.0711
     13 C         141.9515  142.9918  162.2883 C.3     1  UNL1        0.0439
     14 C         142.0039  143.6888  160.9610 C.3     1  UNL1        0.0768
     15 N         141.2166  144.8784  160.4977 N.3     1  UNL1       -0.2720
     16 C         140.1824  145.6651  161.2471 C.3     1  UNL1        0.0768
     17 C         139.6801  145.4563  162.6450 C.3     1  UNL1        0.0434
     18 C         143.6610  138.5598  165.7768 C.3     1  UNL1        0.0073
     19 C         142.8436  139.4340  166.6810 C.3     1  UNL1        0.0526
     20 S         139.0963  143.2032  157.5112 S.3     1  UNL1       -0.0756
     21 C         139.0719  142.5396  158.8562 C.ar    1  UNL1        0.1932
     22 N         138.2805  142.9909  160.0478 N.ar    1  UNL1       -0.1221
     23 N         138.5541  142.0385  161.1738 N.ar    1  UNL1       -0.1282
     24 C         139.5147  140.9985  160.6781 C.ar    1  UNL1        0.1669
     25 N         139.8348  141.3082  159.2457 N.ar    1  UNL1       -0.2884
     26 C         140.7559  140.5241  158.3587 C.3     1  UNL1        0.1340
     27 C         140.0597  139.8504  161.4749 C.ar    1  UNL1        0.0374
     28 C         141.1172  138.9641  160.8866 C.ar    1  UNL1        0.0031
     29 C         141.6621  137.8160  161.6833 C.ar    1  UNL1        0.0016
     30 C         141.1495  137.5541  163.0685 C.ar    1  UNL1        0.0191
     31 C         140.0920  138.4403  163.6568 C.ar    1  UNL1        0.0810
     32 N         139.5794  138.1785  165.0419 N.ar    1  UNL1       -0.2497
     33 C         138.5218  139.0647  165.6304 C.ar    1  UNL1        0.0593
     34 C         138.0091  138.8028  167.0155 C.3     1  UNL1        0.0521
     35 C         137.9769  140.2128  164.8335 C.ar    1  UNL1        0.0147
     36 C         138.4895  140.4747  163.4484 C.ar    1  UNL1        0.0028
     37 C         139.5471  139.5884  162.8600 C.ar    1  UNL1        0.0206
@<TRIPOS>BOND
     1    18    19    1
     2    19     4    1
     3     4     5   ar
     4     5     6   ar
     5     6     7   ar
     6     7     8   ar
     7     8     9   ar
     8     9    10   ar
     9    10    11   ar
    10    11    12   ar
    11    10    13    1
    12    13    14    1
    13    14    15    1
    14    15     3    1
    15     3     2    1
    16     2     1    1
    17     1    20    1
    18    20    21    1
    19    21    22   ar
    20    22    23   ar
    21    23    24   ar
    22    24    27    1
    23    27    28   ar
    24    28    29   ar
    25    29    30   ar
    26    30    31   ar
    27    31    32   ar
    28    32    33   ar
    29    33    34    1
    30    33    35   ar
    31    35    36   ar
    32    36    37   ar
    33    24    25   ar
    34    25    26    1
    35    15    16    1
    36    16    17    1
    37    12     4   ar
    38    25    21   ar
    39    11     6   ar
    40    37    27   ar
    41    17     9    1
    42    37    31   ar
@<TRIPOS>MOLECULE
*****
 37 42 0 0 0
SMALL
GASTEIGER

@<TRIPOS>ATOM
      1 C         140.0140  145.5771  159.9535 C.3     1  UNL1        0.0666
      2 C         139.8575  146.0717  161.3609 C.3     1  UNL1        0.0294
      3 C         138.6727  145.6480  162.1775 C.3     1  UNL1        0.0730
      4 C         141.0767  141.1130  168.9336 C.ar    1  UNL1        0.0882
      5 N         140.3137  139.9062  168.4738 N.ar    1  UNL1       -0.2427
      6 C         139.6430  140.2484  167.1764 C.ar    1  UNL1        0.0871
      7 C         138.7600  139.4518  166.2623 C.ar    1  UNL1        0.0193
      8 C         138.2254  140.0734  165.0062 C.ar    1  UNL1       -0.0030
      9 C         138.5739  141.4918  164.6642 C.ar    1  UNL1       -0.0241
     10 C         139.4569  142.2883  165.5783 C.ar    1  UNL1       -0.0172
     11 C         139.9915  141.6668  166.8344 C.ar    1  UNL1        0.0439
     12 S         140.8775  142.2011  167.9204 S.2     1  UNL1       -0.0711
     13 C         139.9235  143.7059  165.4270 C.3     1  UNL1        0.0439
     14 C         139.6222  144.6769  164.3240 C.3     1  UNL1        0.0768
     15 N         138.7801  144.4702  163.1001 N.3     1  UNL1       -0.2720
     16 C         138.0311  143.2414  162.6768 C.3     1  UNL1        0.0768
     17 C         137.9394  141.9159  163.3729 C.3     1  UNL1        0.0434
     18 C         142.8658  140.1260  170.5381 C.3     1  UNL1        0.0073
     19 C         141.8950  141.2141  170.1866 C.3     1  UNL1        0.0526
     20 S         141.3811  145.2902  159.4070 S.3     1  UNL1       -0.0756
     21 C         142.0738  144.0061  159.7553 C.ar    1  UNL1        0.1932
     22 N         142.3644  142.8769  158.8117 N.ar    1  UNL1       -0.1221
     23 N         143.0677  141.7987  159.5816 N.ar    1  UNL1       -0.1282
     24 C         143.2117  142.2614  161.0011 C.ar    1  UNL1        0.1669
     25 N         142.5974  143.6257  161.1085 N.ar    1  UNL1       -0.2884
     26 C         142.5203  144.4626  162.3510 C.3     1  UNL1        0.1340
     27 C         143.8567  141.4946  162.1173 C.ar    1  UNL1        0.0374
     28 C         145.2320  141.8669  162.5862 C.ar    1  UNL1        0.0031
     29 C         145.8770  141.1001  163.7024 C.ar    1  UNL1        0.0016
     30 C         145.1468  139.9609  164.3497 C.ar    1  UNL1        0.0191
     31 C         143.7715  139.5886  163.8808 C.ar    1  UNL1        0.0810
     32 N         143.0412  138.4495  164.5281 N.ar    1  UNL1       -0.2497
     33 C         141.6658  138.0771  164.0592 C.ar    1  UNL1        0.0593
     34 C         140.9355  136.9379  164.7064 C.3     1  UNL1        0.0521
     35 C         141.0208  138.8440  162.9429 C.ar    1  UNL1        0.0147
     36 C         141.7511  139.9832  162.2957 C.ar    1  UNL1        0.0028
     37 C         143.1265  140.3555  162.7646 C.ar    1  UNL1        0.0206
@<TRIPOS>BOND
     1    18    19    1
     2    19     4    1
     3     4     5   ar
     4     5     6   ar
     5     6     7   ar
     6     7     8   ar
     7     8     9   ar
     8     9    10   ar
     9    10    11   ar
    10    11    12   ar
    11    10    13    1
    12    13    14    1
    13    14    15    1
    14    15     3    1
    15     3     2    1
    16     2     1    1
    17     1    20    1
    18    20    21    1
    19    21    22   ar
    20    22    23   ar
    21    23    24   ar
    22    24    27    1
    23    27    28   ar
    24    28    29   ar
    25    29    30   ar
    26    30    31   ar
    27    31    32   ar
    28    32    33   ar
    29    33    34    1
    30    33    35   ar
    31    35    36   ar
    32    36    37   ar
    33    24    25   ar
    34    25    26    1
    35    15    16    1
    36    16    17    1
    37    12     4   ar
    38    25    21   ar
    39    11     6   ar
    40    37    27   ar
    41    17     9    1
    42    37    31   ar
@<TRIPOS>MOLECULE
*****
 37 42 0 0 0
SMALL
GASTEIGER

@<TRIPOS>ATOM
      1 C         139.5829  143.4197  157.5769 C.3     1  UNL1        0.0666
      2 C         138.4946  142.8812  158.4576 C.3     1  UNL1        0.0294
      3 C         138.3756  141.4031  158.6842 C.3     1  UNL1        0.0730
      4 C         140.0530  141.2841  167.0006 C.ar    1  UNL1        0.0882
      5 N         139.8677  139.7978  167.0806 N.ar    1  UNL1       -0.2427
      6 C         139.5208  139.2993  165.7091 C.ar    1  UNL1        0.0871
      7 C         139.2277  137.9247  165.1851 C.ar    1  UNL1        0.0193
      8 C         138.9054  137.7284  163.7333 C.ar    1  UNL1       -0.0030
      9 C         138.8763  138.9068  162.8055 C.ar    1  UNL1       -0.0241
     10 C         139.1694  140.2813  163.3295 C.ar    1  UNL1       -0.0172
     11 C         139.4917  140.4776  164.7813 C.ar    1  UNL1        0.0439
     12 S         139.8206  141.7042  165.5795 S.2     1  UNL1       -0.0711
     13 C         139.1936  141.5817  162.5822 C.3     1  UNL1        0.0439
     14 C         138.9306  141.8285  161.1261 C.3     1  UNL1        0.0768
     15 N         138.5785  140.8361  160.0580 N.3     1  UNL1       -0.2720
     16 C         138.4024  139.3516  160.1819 C.3     1  UNL1        0.0768
     17 C         138.5349  138.4930  161.4047 C.3     1  UNL1        0.0434
     18 C         140.1356  141.7631  169.5528 C.3     1  UNL1        0.0073
     19 C         140.4083  142.1910  168.1412 C.3     1  UNL1        0.0526
     20 S         140.5819  144.3928  158.1291 S.3     1  UNL1       -0.0756
     21 C         141.6412  143.9214  159.0808 C.ar    1  UNL1        0.1932
     22 N         142.8911  143.1789  158.7114 N.ar    1  UNL1       -0.1221
     23 N         143.6590  142.9083  159.9711 N.ar    1  UNL1       -0.1282
     24 C         142.8836  143.4835  161.1192 C.ar    1  UNL1        0.1669
     25 N         141.6365  144.1097  160.5689 N.ar    1  UNL1       -0.2884
     26 C         140.5718  144.8024  161.3667 C.3     1  UNL1        0.1340
     27 C         143.2849  143.4402  162.5638 C.ar    1  UNL1        0.0374
     28 C         143.7398  144.6921  163.2537 C.ar    1  UNL1        0.0031
     29 C         144.1410  144.6488  164.6984 C.ar    1  UNL1        0.0016
     30 C         144.0874  143.3537  165.4533 C.ar    1  UNL1        0.0191
     31 C         143.6325  142.1019  164.7634 C.ar    1  UNL1        0.0810
     32 N         143.5788  140.8068  165.5182 N.ar    1  UNL1       -0.2497
     33 C         143.1239  139.5548  164.8283 C.ar    1  UNL1        0.0593
     34 C         143.0702  138.2597  165.5831 C.3     1  UNL1        0.0521
     35 C         142.7226  139.5982  163.3836 C.ar    1  UNL1        0.0147
     36 C         142.7763  140.8933  162.6288 C.ar    1  UNL1        0.0028
     37 C         143.2312  142.1452  163.3187 C.ar    1  UNL1        0.0206
@<TRIPOS>BOND
     1    18    19    1
     2    19     4    1
     3     4     5   ar
     4     5     6   ar
     5     6     7   ar
     6     7     8   ar
     7     8     9   ar
     8     9    10   ar
     9    10    11   ar
    10    11    12   ar
    11    10    13    1
    12    13    14    1
    13    14    15    1
    14    15     3    1
    15     3     2    1
    16     2     1    1
    17     1    20    1
    18    20    21    1
    19    21    22   ar
    20    22    23   ar
    21    23    24   ar
    22    24    27    1
    23    27    28   ar
    24    28    29   ar
    25    29    30   ar
    26    30    31   ar
    27    31    32   ar
    28    32    33   ar
    29    33    34    1
    30    33    35   ar
    31    35    36   ar
    32    36    37   ar
    33    24    25   ar
    34    25    26    1
    35    15    16    1
    36    16    17    1
    37    12     4   ar
    38    25    21   ar
    39    11     6   ar
    40    37    27   ar
    41    17     9    1
    42    37    31   ar
@<TRIPOS>MOLECULE
*****
 37 42 0 0 0
SMALL
GASTEIGER

@<TRIPOS>ATOM
      1 C         139.0999  139.8083  157.1395 C.3     1  UNL1        0.0666
      2 C         140.5244  139.7933  157.6092 C.3     1  UNL1        0.0294
      3 C         141.0479  138.6175  158.3796 C.3     1  UNL1        0.0730
      4 C         140.6922  139.8075  166.7730 C.ar    1  UNL1        0.0882
      5 N         142.1863  139.7824  166.9032 N.ar    1  UNL1       -0.2427
      6 C         142.7674  139.5734  165.5362 C.ar    1  UNL1        0.0871
      7 C         144.1834  139.4645  165.0533 C.ar    1  UNL1        0.0193
      8 C         144.4643  139.2514  163.5953 C.ar    1  UNL1       -0.0030
      9 C         143.3292  139.1473  162.6202 C.ar    1  UNL1       -0.0241
     10 C         141.9133  139.2563  163.1031 C.ar    1  UNL1       -0.0172
     11 C         141.6323  139.4693  164.5610 C.ar    1  UNL1        0.0439
     12 S         140.3499  139.6140  165.3254 S.2     1  UNL1       -0.0711
     13 C         140.6449  139.1810  162.3059 C.3     1  UNL1        0.0439
     14 C         140.4792  138.9782  160.8288 C.3     1  UNL1        0.0768
     15 N         141.5410  138.8006  159.7844 N.3     1  UNL1       -0.2720
     16 C         143.0307  138.7819  159.9588 C.3     1  UNL1        0.0768
     17 C         143.8266  138.9362  161.2209 C.3     1  UNL1        0.0434
     18 C         140.0505  140.8953  169.0434 C.3     1  UNL1        0.0073
     19 C         139.7125  139.9934  167.8934 C.3     1  UNL1        0.0526
     20 S         138.1839  140.9198  157.5580 S.3     1  UNL1       -0.0756
     21 C         138.6123  141.8831  158.6250 C.ar    1  UNL1        0.1932
     22 N         139.3090  143.1927  158.4025 N.ar    1  UNL1       -0.1221
     23 N         139.5465  143.8250  159.7419 N.ar    1  UNL1       -0.1282
     24 C         138.9964  142.9061  160.7922 C.ar    1  UNL1        0.1669
     25 N         138.4190  141.7060  160.1019 N.ar    1  UNL1       -0.2884
     26 C         137.7636  140.5344  160.7712 C.3     1  UNL1        0.1340
     27 C         139.0196  143.1453  162.2728 C.ar    1  UNL1        0.0374
     28 C         137.7402  143.4086  163.0102 C.ar    1  UNL1        0.0031
     29 C         137.7634  143.6479  164.4908 C.ar    1  UNL1        0.0016
     30 C         139.0660  143.6238  165.2341 C.ar    1  UNL1        0.0191
     31 C         140.3455  143.3605  164.4967 C.ar    1  UNL1        0.0810
     32 N         141.6482  143.3365  165.2399 N.ar    1  UNL1       -0.2497
     33 C         142.9277  143.0732  164.5026 C.ar    1  UNL1        0.0593
     34 C         144.2304  143.0491  165.2459 C.3     1  UNL1        0.0521
     35 C         142.9044  142.8339  163.0220 C.ar    1  UNL1        0.0147
     36 C         141.6017  142.8580  162.2787 C.ar    1  UNL1        0.0028
     37 C         140.3223  143.1213  163.0161 C.ar    1  UNL1        0.0206
@<TRIPOS>BOND
     1    18    19    1
     2    19     4    1
     3     4     5   ar
     4     5     6   ar
     5     6     7   ar
     6     7     8   ar
     7     8     9   ar
     8     9    10   ar
     9    10    11   ar
    10    11    12   ar
    11    10    13    1
    12    13    14    1
    13    14    15    1
    14    15     3    1
    15     3     2    1
    16     2     1    1
    17     1    20    1
    18    20    21    1
    19    21    22   ar
    20    22    23   ar
    21    23    24   ar
    22    24    27    1
    23    27    28   ar
    24    28    29   ar
    25    29    30   ar
    26    30    31   ar
    27    31    32   ar
    28    32    33   ar
    29    33    34    1
    30    33    35   ar
    31    35    36   ar
    32    36    37   ar
    33    24    25   ar
    34    25    26    1
    35    15    16    1
    36    16    17    1
    37    12     4   ar
    38    25    21   ar
    39    11     6   ar
    40    37    27   ar
    41    17     9    1
    42    37    31   ar
@<TRIPOS>MOLECULE
*****
 37 42 0 0 0
SMALL
GASTEIGER

@<TRIPOS>ATOM
      1 C         143.1091  139.9125  159.6067 C.3     1  UNL1        0.0666
      2 C         143.3401  138.5178  160.1083 C.3     1  UNL1        0.0294
      3 C         143.7256  138.2898  161.5400 C.3     1  UNL1        0.0730
      4 C         140.2059  140.7195  168.8679 C.ar    1  UNL1        0.0882
      5 N         138.9462  139.9545  168.5890 N.ar    1  UNL1       -0.2427
      6 C         139.0990  139.2787  167.2586 C.ar    1  UNL1        0.0871
      7 C         138.1800  138.3920  166.4718 C.ar    1  UNL1        0.0193
      8 C         138.6153  137.8526  165.1415 C.ar    1  UNL1       -0.0030
      9 C         139.9696  138.2000  164.5981 C.ar    1  UNL1       -0.0241
     10 C         140.8885  139.0868  165.3849 C.ar    1  UNL1       -0.0172
     11 C         140.4533  139.6261  166.7152 C.ar    1  UNL1        0.0439
     12 S         141.1373  140.5165  167.7097 S.2     1  UNL1       -0.0711
     13 C         142.2693  139.5530  165.0298 C.3     1  UNL1        0.0439
     14 C         143.0721  139.2476  163.7999 C.3     1  UNL1        0.0768
     15 N         142.6924  138.4007  162.6218 N.3     1  UNL1       -0.2720
     16 C         141.4162  137.6498  162.3821 C.3     1  UNL1        0.0768
     17 C         140.2044  137.5605  163.2617 C.3     1  UNL1        0.0434
     18 C         140.1066  142.9940  170.1196 C.3     1  UNL1        0.0073
     19 C         140.4852  141.5428  170.0902 C.3     1  UNL1        0.0526
     20 S         142.8477  140.1516  158.1492 S.3     1  UNL1       -0.0756
     21 C         143.2818  139.1371  157.1331 C.ar    1  UNL1        0.1932
     22 N         144.5857  139.1342  156.3915 N.ar    1  UNL1       -0.1221
     23 N         144.5980  137.9428  155.4803 N.ar    1  UNL1       -0.1282
     24 C         143.3018  137.2094  155.6587 C.ar    1  UNL1        0.1669
     25 N         142.4883  137.9475  156.6802 N.ar    1  UNL1       -0.2884
     26 C         141.1213  137.5634  157.1639 C.3     1  UNL1        0.1340
     27 C         142.8911  135.9576  154.9415 C.ar    1  UNL1        0.0374
     28 C         142.2202  136.0459  153.6028 C.ar    1  UNL1        0.0031
     29 C         141.8095  134.7941  152.8856 C.ar    1  UNL1        0.0016
     30 C         142.0696  133.4540  153.5071 C.ar    1  UNL1        0.0191
     31 C         142.7404  133.3656  154.8458 C.ar    1  UNL1        0.0810
     32 N         143.0006  132.0255  155.4674 N.ar    1  UNL1       -0.2497
     33 C         143.6714  131.9371  156.8061 C.ar    1  UNL1        0.0593
     34 C         143.9316  130.5970  157.4277 C.3     1  UNL1        0.0521
     35 C         144.0821  133.1890  157.5233 C.ar    1  UNL1        0.0147
     36 C         143.8220  134.5291  156.9017 C.ar    1  UNL1        0.0028
     37 C         143.1511  134.6174  155.5630 C.ar    1  UNL1        0.0206
@<TRIPOS>BOND
     1    18    19    1
     2    19     4    1
     3     4     5   ar
     4     5     6   ar
     5     6     7   ar
     6     7     8   ar
     7     8     9   ar
     8     9    10   ar
     9    10    11   ar
    10    11    12   ar
    11    10    13    1
    12    13    14    1
    13    14    15    1
    14    15     3    1
    15     3     2    1
    16     2     1    1
    17     1    20    1
    18    20    21    1
    19    21    22   ar
    20    22    23   ar
    21    23    24   ar
    22    24    27    1
    23    27    28   ar
    24    28    29   ar
    25    29    30   ar
    26    30    31   ar
    27    31    32   ar
    28    32    33   ar
    29    33    34    1
    30    33    35   ar
    31    35    36   ar
    32    36    37   ar
    33    24    25   ar
    34    25    26    1
    35    15    16    1
    36    16    17    1
    37    12     4   ar
    38    25    21   ar
    39    11     6   ar
    40    37    27   ar
    41    17     9    1
    42    37    31   ar
@<TRIPOS>MOLECULE
*****
 37 42 0 0 0
SMALL
GASTEIGER

@<TRIPOS>ATOM
      1 C         138.2207  142.5491  157.7878 C.3     1  UNL1        0.0666
      2 C         139.6642  142.8407  158.0726 C.3     1  UNL1        0.0294
      3 C         140.0356  143.9845  158.9692 C.3     1  UNL1        0.0730
      4 C         141.2781  142.4915  167.2286 C.ar    1  UNL1        0.0882
      5 N         142.7679  142.4465  167.0607 N.ar    1  UNL1       -0.2427
      6 C         143.0786  142.6820  165.6123 C.ar    1  UNL1        0.0871
      7 C         144.3756  142.7476  164.8617 C.ar    1  UNL1        0.0193
      8 C         144.3747  143.0038  163.3837 C.ar    1  UNL1       -0.0030
      9 C         143.0767  143.1944  162.6563 C.ar    1  UNL1       -0.0241
     10 C         141.7798  143.1288  163.4069 C.ar    1  UNL1       -0.0172
     11 C         141.7806  142.8726  164.8849 C.ar    1  UNL1        0.0439
     12 S         140.6679  142.7548  165.8838 S.2     1  UNL1       -0.0711
     13 C         140.3848  143.2895  162.8795 C.3     1  UNL1        0.0439
     14 C         139.9423  143.5556  161.4711 C.3     1  UNL1        0.0768
     15 N         140.7855  143.7266  160.2425 N.3     1  UNL1       -0.2720
     16 C         142.2795  143.6738  160.1186 C.3     1  UNL1        0.0768
     17 C         143.2992  143.4369  161.1929 C.3     1  UNL1        0.0434
     18 C         140.6215  143.3449  169.5930 C.3     1  UNL1        0.0073
     19 C         140.5298  142.3057  168.5152 C.3     1  UNL1        0.0526
     20 S         137.6995  141.1483  157.9138 S.3     1  UNL1       -0.0756
     21 C         138.4533  140.1379  158.7268 C.ar    1  UNL1        0.1932
     22 N         139.2978  139.0230  158.1848 N.ar    1  UNL1       -0.1221
     23 N         139.8614  138.2610  159.3475 N.ar    1  UNL1       -0.1282
     24 C         139.3653  138.9051  160.6080 C.ar    1  UNL1        0.1669
     25 N         138.4950  140.0651  160.2244 N.ar    1  UNL1       -0.2884
     26 C         137.7901  140.9898  161.1721 C.3     1  UNL1        0.1340
     27 C         139.6835  138.4662  162.0066 C.ar    1  UNL1        0.0374
     28 C         138.6330  137.7920  162.8385 C.ar    1  UNL1        0.0031
     29 C         138.9512  137.3531  164.2371 C.ar    1  UNL1        0.0016
     30 C         140.3199  137.5885  164.8039 C.ar    1  UNL1        0.0191
     31 C         141.3703  138.2627  163.9721 C.ar    1  UNL1        0.0810
     32 N         142.7390  138.4981  164.5389 N.ar    1  UNL1       -0.2497
     33 C         143.7896  139.1723  163.7071 C.ar    1  UNL1        0.0593
     34 C         145.1583  139.4077  164.2739 C.3     1  UNL1        0.0521
     35 C         143.4713  139.6111  162.3084 C.ar    1  UNL1        0.0147
     36 C         142.1026  139.3758  161.7416 C.ar    1  UNL1        0.0028
     37 C         141.0521  138.7015  162.5735 C.ar    1  UNL1        0.0206
@<TRIPOS>BOND
     1    18    19    1
     2    19     4    1
     3     4     5   ar
     4     5     6   ar
     5     6     7   ar
     6     7     8   ar
     7     8     9   ar
     8     9    10   ar
     9    10    11   ar
    10    11    12   ar
    11    10    13    1
    12    13    14    1
    13    14    15    1
    14    15     3    1
    15     3     2    1
    16     2     1    1
    17     1    20    1
    18    20    21    1
    19    21    22   ar
    20    22    23   ar
    21    23    24   ar
    22    24    27    1
    23    27    28   ar
    24    28    29   ar
    25    29    30   ar
    26    30    31   ar
    27    31    32   ar
    28    32    33   ar
    29    33    34    1
    30    33    35   ar
    31    35    36   ar
    32    36    37   ar
    33    24    25   ar
    34    25    26    1
    35    15    16    1
    36    16    17    1
    37    12     4   ar
    38    25    21   ar
    39    11     6   ar
    40    37    27   ar
    41    17     9    1
    42    37    31   ar
@<TRIPOS>MOLECULE
*****
 37 42 0 0 0
SMALL
GASTEIGER

@<TRIPOS>ATOM
      1 C         143.7200  143.2547  157.9019 C.3     1  UNL1        0.0666
      2 C         142.2930  143.0010  157.5153 C.3     1  UNL1        0.0294
      3 C         141.1880  143.7658  158.1819 C.3     1  UNL1        0.0730
      4 C         138.8970  139.9327  165.3964 C.ar    1  UNL1        0.0882
      5 N         139.2192  141.1461  166.2171 N.ar    1  UNL1       -0.2427
      6 C         139.7171  142.2145  165.2894 C.ar    1  UNL1        0.0871
      7 C         140.1819  143.6195  165.5339 C.ar    1  UNL1        0.0193
      8 C         140.6321  144.4714  164.3843 C.ar    1  UNL1       -0.0030
      9 C         140.6176  143.9182  162.9901 C.ar    1  UNL1       -0.0241
     10 C         140.1529  142.5132  162.7456 C.ar    1  UNL1       -0.0172
     11 C         139.7027  141.6613  163.8951 C.ar    1  UNL1        0.0439
     12 S         139.1958  140.2511  163.9613 S.2     1  UNL1       -0.0711
     13 C         140.0599  141.7719  161.4448 C.3     1  UNL1        0.0439
     14 C         140.4086  142.2527  160.0673 C.3     1  UNL1        0.0768
     15 N         140.9364  143.5933  159.6506 N.3     1  UNL1       -0.2720
     16 C         141.2460  144.7845  160.5081 C.3     1  UNL1        0.0768
     17 C         141.1041  144.9291  161.9944 C.3     1  UNL1        0.0434
     18 C         138.7508  137.3429  165.2494 C.3     1  UNL1        0.0073
     19 C         138.3687  138.6297  165.9188 C.3     1  UNL1        0.0526
     20 S         144.4629  142.2485  158.7298 S.3     1  UNL1       -0.0756
     21 C         144.2157  142.1632  160.2068 C.ar    1  UNL1        0.1932
     22 N         144.4077  143.2723  161.1983 N.ar    1  UNL1       -0.1221
     23 N         144.0437  142.7485  162.5560 N.ar    1  UNL1       -0.1282
     24 C         143.6268  141.3157  162.4035 C.ar    1  UNL1        0.1669
     25 N         143.7331  140.9539  160.9516 N.ar    1  UNL1       -0.2884
     26 C         143.4130  139.6176  160.3502 C.3     1  UNL1        0.1340
     27 C         143.1818  140.4046  163.5088 C.ar    1  UNL1        0.0374
     28 C         142.7711  138.9954  163.1997 C.ar    1  UNL1        0.0031
     29 C         142.3261  138.0842  164.3050 C.ar    1  UNL1        0.0016
     30 C         142.2917  138.5822  165.7195 C.ar    1  UNL1        0.0191
     31 C         142.7023  139.9914  166.0286 C.ar    1  UNL1        0.0810
     32 N         142.6679  140.4895  167.4431 N.ar    1  UNL1       -0.2497
     33 C         143.0786  141.8987  167.7523 C.ar    1  UNL1        0.0593
     34 C         143.0442  142.3967  169.1668 C.3     1  UNL1        0.0521
     35 C         143.5236  142.8098  166.6469 C.ar    1  UNL1        0.0147
     36 C         143.5580  142.3117  165.2324 C.ar    1  UNL1        0.0028
     37 C         143.1474  140.9025  164.9233 C.ar    1  UNL1        0.0206
@<TRIPOS>BOND
     1    18    19    1
     2    19     4    1
     3     4     5   ar
     4     5     6   ar
     5     6     7   ar
     6     7     8   ar
     7     8     9   ar
     8     9    10   ar
     9    10    11   ar
    10    11    12   ar
    11    10    13    1
    12    13    14    1
    13    14    15    1
    14    15     3    1
    15     3     2    1
    16     2     1    1
    17     1    20    1
    18    20    21    1
    19    21    22   ar
    20    22    23   ar
    21    23    24   ar
    22    24    27    1
    23    27    28   ar
    24    28    29   ar
    25    29    30   ar
    26    30    31   ar
    27    31    32   ar
    28    32    33   ar
    29    33    34    1
    30    33    35   ar
    31    35    36   ar
    32    36    37   ar
    33    24    25   ar
    34    25    26    1
    35    15    16    1
    36    16    17    1
    37    12     4   ar
    38    25    21   ar
    39    11     6   ar
    40    37    27   ar
    41    17     9    1
    42    37    31   ar
