@<TRIPOS>MOLECULE
*****
 35 38 0 0 0
SMALL
GASTEIGER

@<TRIPOS>ATOM
      1 C         140.9961  140.3301  164.6348 C.2     1  UNL1        0.1397
      2 C         140.7781  140.2446  163.1532 C.2     1  UNL1        0.1355
      3 N         140.5549  141.4945  162.3546 N.pl3   1  UNL1       -0.1998
      4 C         140.5496  142.8300  163.0376 C.2     1  UNL1        0.3442
      5 N         140.7676  142.9155  164.5192 N.2     1  UNL1       -0.0580
      6 C         140.9908  141.6655  165.3178 C.3     1  UNL1        0.2695
      7 H         140.4118  141.4384  161.3822 H       1  UNL1        0.2983
      8 C         141.2088  141.7511  166.7994 C.ar    1  UNL1        0.0414
      9 C         140.0928  141.4115  167.7425 C.ar    1  UNL1        0.0019
     10 C         140.3107  141.4970  169.2241 C.ar    1  UNL1        0.0113
     11 C         141.6446  141.9221  169.7627 C.ar    1  UNL1        0.0585
     12 CL        141.8625  142.0077  171.2443 Cl      1  UNL1       -0.0822
     13 C         142.7606  142.2617  168.8196 C.ar    1  UNL1        0.0226
     14 C         142.5426  142.1762  167.3380 C.ar    1  UNL1        0.0589
     15 CL        143.6586  142.5158  166.3949 Cl      1  UNL1       -0.0824
     16 C         140.3264  144.0799  162.2390 C.ar    1  UNL1        0.1931
     17 N         139.6484  145.3269  162.7241 N.ar    1  UNL1       -0.2297
     18 C         139.6449  146.3200  161.6000 C.ar    1  UNL1        0.1067
     19 C         140.3208  145.6868  160.4200 C.ar    1  UNL1        0.0577
     20 S         140.7420  144.3024  160.8150 S.2     1  UNL1       -0.0586
     21 C         141.2193  139.0801  165.4334 C.2     1  UNL1        0.3447
     22 O         142.5943  138.7418  165.9282 O.2     1  UNL1       -0.2450
     23 O         140.0676  138.1685  165.7372 O.3     1  UNL1       -0.4455
     24 C         137.7664  138.5727  166.8737 C.3     1  UNL1        0.0513
     25 C         138.6623  138.6896  165.6763 C.3     1  UNL1        0.2089
     26 C         140.7834  138.9091  162.4702 C.3     1  UNL1        0.1407
     27 N         140.7511  138.8325  160.9725 N.3     1  UNL1       -0.2584
     28 C         142.0193  138.6006  160.2058 C.3     1  UNL1        0.1052
     29 C         141.9870  138.5241  158.7081 C.3     1  UNL1        0.1595
     30 O         140.6864  138.6795  157.9771 O.3     1  UNL1       -0.3505
     31 C         139.4182  138.9114  158.7438 C.3     1  UNL1        0.1637
     32 C         139.4505  138.9879  160.2414 C.3     1  UNL1        0.1247
     33 C         138.1823  139.2199  161.0081 C.2     1  UNL1        0.0673
     34 O         137.6692  140.6157  161.2046 O.co2   1  UNL1       -0.5477
     35 O         137.4271  138.0560  161.5783 O.co2   1  UNL1       -0.5477
@<TRIPOS>UNITY_ATOM_ATTR
34 1
charge -1
@<TRIPOS>BOND
     1    24    25    1
     2    25    23    1
     3    23    21    1
     4    21    22    2
     5    21     1    1
     6     1     2    2
     7     2    26    1
     8    26    27    1
     9    27    28    1
    10    28    29    1
    11    29    30    1
    12    30    31    1
    13    31    32    1
    14    32    33    1
    15    33    34   ar
    16    33    35   ar
    17     2     3    1
    18     3     4    1
    19     4    16    1
    20    16    17   ar
    21    17    18   ar
    22    18    19   ar
    23    19    20   ar
    24     4     5    2
    25     5     6    1
    26     6     8    1
    27     8     9   ar
    28     9    10   ar
    29    10    11   ar
    30    11    12    1
    31    11    13   ar
    32    13    14   ar
    33    14    15    1
    34     6     1    1
    35    14     8   ar
    36    32    27    1
    37    20    16   ar
    38     3     7    1
@<TRIPOS>MOLECULE
*****
 35 38 0 0 0
SMALL
GASTEIGER

@<TRIPOS>ATOM
      1 C         141.0472  140.2748  164.4604 C.2     1  UNL1        0.1397
      2 C         140.8424  140.1795  162.9775 C.2     1  UNL1        0.1355
      3 N         140.6118  141.4229  162.1708 N.pl3   1  UNL1       -0.1998
      4 C         140.5861  142.7616  162.8469 C.2     1  UNL1        0.3442
      5 N         140.7910  142.8569  164.3297 N.2     1  UNL1       -0.0580
      6 C         141.0215  141.6135  165.1365 C.3     1  UNL1        0.2695
      7 H         140.4774  141.3603  161.1975 H       1  UNL1        0.2983
      8 C         141.2264  141.7089  166.6194 C.ar    1  UNL1        0.0414
      9 C         140.0975  141.3906  167.5545 C.ar    1  UNL1        0.0019
     10 C         140.3023  141.4860  169.0373 C.ar    1  UNL1        0.0113
     11 C         141.6361  141.8997  169.5852 C.ar    1  UNL1        0.0585
     12 CL        141.8409  141.9950  171.0681 Cl      1  UNL1       -0.0822
     13 C         142.7650  142.2179  168.6501 C.ar    1  UNL1        0.0226
     14 C         142.5601  142.1225  167.1672 C.ar    1  UNL1        0.0589
     15 CL        143.6890  142.4408  166.2321 Cl      1  UNL1       -0.0824
     16 C         140.3556  144.0049  162.0401 C.ar    1  UNL1        0.1931
     17 N         140.6764  144.1845  160.5859 N.ar    1  UNL1       -0.2297
     18 C         140.2828  145.5776  160.1929 C.ar    1  UNL1        0.1067
     19 C         139.7187  146.2590  161.4043 C.ar    1  UNL1        0.0577
     20 S         139.7637  145.2871  162.5459 S.2     1  UNL1       -0.0586
     21 C         141.2778  139.0314  165.2671 C.2     1  UNL1        0.3447
     22 O         142.6573  138.6970  165.7519 O.2     1  UNL1       -0.2450
     23 O         140.1289  138.1225  165.5891 O.3     1  UNL1       -0.4455
     24 C         137.8479  138.5833  166.7445 C.3     1  UNL1        0.0513
     25 C         138.7225  138.6406  165.5272 C.3     1  UNL1        0.2089
     26 C         140.8681  138.8407  162.3014 C.3     1  UNL1        0.1407
     27 N         140.9396  138.7573  160.8054 N.3     1  UNL1       -0.2584
     28 C         139.6783  138.6741  159.9978 C.3     1  UNL1        0.1052
     29 C         139.7499  138.5906  158.5017 C.3     1  UNL1        0.1595
     30 O         141.0826  138.5904  157.8135 O.3     1  UNL1       -0.3505
     31 C         142.3439  138.6737  158.6211 C.3     1  UNL1        0.1637
     32 C         142.2724  138.7571  160.1171 C.3     1  UNL1        0.1247
     33 C         143.5336  138.8403  160.9248 C.2     1  UNL1        0.0673
     34 O         144.1891  137.5865  161.4233 O.co2   1  UNL1       -0.5477
     35 O         144.1394  140.1772  161.2339 O.co2   1  UNL1       -0.5477
@<TRIPOS>UNITY_ATOM_ATTR
34 1
charge -1
@<TRIPOS>BOND
     1    24    25    1
     2    25    23    1
     3    23    21    1
     4    21    22    2
     5    21     1    1
     6     1     2    2
     7     2    26    1
     8    26    27    1
     9    27    28    1
    10    28    29    1
    11    29    30    1
    12    30    31    1
    13    31    32    1
    14    32    33    1
    15    33    34   ar
    16    33    35   ar
    17     2     3    1
    18     3     4    1
    19     4    16    1
    20    16    17   ar
    21    17    18   ar
    22    18    19   ar
    23    19    20   ar
    24     4     5    2
    25     5     6    1
    26     6     8    1
    27     8     9   ar
    28     9    10   ar
    29    10    11   ar
    30    11    12    1
    31    11    13   ar
    32    13    14   ar
    33    14    15    1
    34     6     1    1
    35    14     8   ar
    36    32    27    1
    37    20    16   ar
    38     3     7    1
@<TRIPOS>MOLECULE
*****
 35 38 0 0 0
SMALL
GASTEIGER

@<TRIPOS>ATOM
      1 C         140.5843  139.6085  163.9829 C.2     1  UNL1        0.1397
      2 C         140.6069  139.7652  162.4913 C.2     1  UNL1        0.1355
      3 N         140.4955  141.1298  161.8787 N.pl3   1  UNL1       -0.1998
      4 C         140.3615  142.3378  162.7577 C.2     1  UNL1        0.3442
      5 N         140.3389  142.1812  164.2493 N.2     1  UNL1       -0.0580
      6 C         140.4503  140.8165  164.8619 C.3     1  UNL1        0.2695
      7 H         140.5103  141.2326  160.8997 H       1  UNL1        0.2983
      8 C         140.4277  140.6600  166.3536 C.ar    1  UNL1        0.0414
      9 C         139.2194  140.0821  167.0288 C.ar    1  UNL1        0.0019
     10 C         139.1967  139.9255  168.5204 C.ar    1  UNL1        0.0113
     11 C         140.3825  140.3468  169.3369 C.ar    1  UNL1        0.0585
     12 CL        140.3598  140.1902  170.8285 Cl      1  UNL1       -0.0822
     13 C         141.5909  140.9246  168.6617 C.ar    1  UNL1        0.0226
     14 C         141.6134  141.0812  167.1700 C.ar    1  UNL1        0.0589
     15 CL        142.8218  141.6591  166.4948 Cl      1  UNL1       -0.0824
     16 C         140.2501  143.7025  162.1451 C.ar    1  UNL1        0.1931
     17 N         140.6965  144.0891  160.7662 N.ar    1  UNL1       -0.2297
     18 C         140.3951  145.5457  160.5727 C.ar    1  UNL1        0.1067
     19 C         139.7625  146.0594  161.8320 C.ar    1  UNL1        0.0577
     20 S         139.6729  144.9202  162.8038 S.2     1  UNL1       -0.0586
     21 C         140.6956  138.2439  164.5955 C.2     1  UNL1        0.3447
     22 O         139.4609  137.5206  165.0452 O.2     1  UNL1       -0.2450
     23 O         142.0417  137.6025  164.7584 O.3     1  UNL1       -0.4455
     24 C         143.8649  138.1252  166.5342 C.3     1  UNL1        0.0513
     25 C         143.2122  138.4212  165.2164 C.3     1  UNL1        0.2089
     26 C         140.7408  138.5571  161.6122 C.3     1  UNL1        0.1407
     27 N         141.1035  138.7186  160.1658 N.3     1  UNL1       -0.2584
     28 C         140.0294  138.7190  159.1188 C.3     1  UNL1        0.1052
     29 C         140.3921  138.8805  157.6722 C.3     1  UNL1        0.1595
     30 O         141.8289  139.0416  157.2727 O.3     1  UNL1       -0.3505
     31 C         142.9030  139.0412  158.3198 C.3     1  UNL1        0.1637
     32 C         142.5404  138.8797  159.7662 C.3     1  UNL1        0.1247
     33 C         143.6145  138.8793  160.8132 C.2     1  UNL1        0.0673
     34 O         144.1204  137.5807  161.3682 O.co2   1  UNL1       -0.5477
     35 O         144.1827  140.1773  161.3053 O.co2   1  UNL1       -0.5477
@<TRIPOS>UNITY_ATOM_ATTR
34 1
charge -1
@<TRIPOS>BOND
     1    24    25    1
     2    25    23    1
     3    23    21    1
     4    21    22    2
     5    21     1    1
     6     1     2    2
     7     2    26    1
     8    26    27    1
     9    27    28    1
    10    28    29    1
    11    29    30    1
    12    30    31    1
    13    31    32    1
    14    32    33    1
    15    33    34   ar
    16    33    35   ar
    17     2     3    1
    18     3     4    1
    19     4    16    1
    20    16    17   ar
    21    17    18   ar
    22    18    19   ar
    23    19    20   ar
    24     4     5    2
    25     5     6    1
    26     6     8    1
    27     8     9   ar
    28     9    10   ar
    29    10    11   ar
    30    11    12    1
    31    11    13   ar
    32    13    14   ar
    33    14    15    1
    34     6     1    1
    35    14     8   ar
    36    32    27    1
    37    20    16   ar
    38     3     7    1
@<TRIPOS>MOLECULE
*****
 35 38 0 0 0
SMALL
GASTEIGER

@<TRIPOS>ATOM
      1 C         139.5510  142.0504  163.7100 C.2     1  UNL1        0.1397
      2 C         139.5813  141.9611  162.2130 C.2     1  UNL1        0.1355
      3 N         140.4721  140.9599  161.5393 N.pl3   1  UNL1       -0.1998
      4 C         141.3326  140.0479  162.3625 C.2     1  UNL1        0.3442
      5 N         141.3023  140.1372  163.8595 N.2     1  UNL1       -0.0580
      6 C         140.4115  141.1385  164.5333 C.3     1  UNL1        0.2695
      7 H         140.4920  140.9013  160.5567 H       1  UNL1        0.2983
      8 C         140.3812  141.2277  166.0303 C.ar    1  UNL1        0.0414
      9 C         141.2270  142.2443  166.7383 C.ar    1  UNL1        0.0019
     10 C         141.1967  142.3336  168.2353 C.ar    1  UNL1        0.0113
     11 C         140.3207  141.4063  169.0244 C.ar    1  UNL1        0.0585
     12 CL        140.2904  141.4956  170.5214 Cl      1  UNL1       -0.0822
     13 C         139.4749  140.3897  168.3165 C.ar    1  UNL1        0.0226
     14 C         139.5052  140.3004  166.8194 C.ar    1  UNL1        0.0589
     15 CL        138.6594  139.2838  166.1114 Cl      1  UNL1       -0.0824
     16 C         142.2234  139.0466  161.6888 C.ar    1  UNL1        0.1931
     17 N         143.5453  138.5569  162.2013 N.ar    1  UNL1       -0.2297
     18 C         144.0876  137.5669  161.2135 C.ar    1  UNL1        0.1067
     19 C         143.1008  137.4447  160.0904 C.ar    1  UNL1        0.0577
     20 S         141.9487  138.3592  160.3842 S.2     1  UNL1       -0.0586
     21 C         138.6602  143.0517  164.3837 C.2     1  UNL1        0.3447
     22 O         137.2077  142.7418  164.5935 O.2     1  UNL1       -0.2450
     23 O         139.2219  144.3629  164.8477 O.3     1  UNL1       -0.4455
     24 C         141.6424  144.8375  164.0313 C.3     1  UNL1        0.0513
     25 C         140.1712  145.1244  163.9708 C.3     1  UNL1        0.2089
     26 C         138.7208  142.8732  161.3896 C.3     1  UNL1        0.1407
     27 N         138.9034  142.9361  159.9022 N.3     1  UNL1       -0.2584
     28 C         138.2665  141.9003  159.0238 C.3     1  UNL1        0.1052
     29 C         138.4492  141.9633  157.5363 C.3     1  UNL1        0.1595
     30 O         139.2686  143.0621  156.9271 O.3     1  UNL1       -0.3505
     31 C         139.9055  144.0979  157.8055 C.3     1  UNL1        0.1637
     32 C         139.7229  144.0350  159.2929 C.3     1  UNL1        0.1247
     33 C         140.3597  145.0708  160.1713 C.2     1  UNL1        0.0673
     34 O         139.5381  146.2031  160.7125 O.co2   1  UNL1       -0.5477
     35 O         141.8181  144.9743  160.5085 O.co2   1  UNL1       -0.5477
@<TRIPOS>UNITY_ATOM_ATTR
34 1
charge -1
@<TRIPOS>BOND
     1    24    25    1
     2    25    23    1
     3    23    21    1
     4    21    22    2
     5    21     1    1
     6     1     2    2
     7     2    26    1
     8    26    27    1
     9    27    28    1
    10    28    29    1
    11    29    30    1
    12    30    31    1
    13    31    32    1
    14    32    33    1
    15    33    34   ar
    16    33    35   ar
    17     2     3    1
    18     3     4    1
    19     4    16    1
    20    16    17   ar
    21    17    18   ar
    22    18    19   ar
    23    19    20   ar
    24     4     5    2
    25     5     6    1
    26     6     8    1
    27     8     9   ar
    28     9    10   ar
    29    10    11   ar
    30    11    12    1
    31    11    13   ar
    32    13    14   ar
    33    14    15    1
    34     6     1    1
    35    14     8   ar
    36    32    27    1
    37    20    16   ar
    38     3     7    1
@<TRIPOS>MOLECULE
*****
 35 38 0 0 0
SMALL
GASTEIGER

@<TRIPOS>ATOM
      1 C         143.0207  140.2922  159.4725 C.2     1  UNL1        0.1397
      2 C         143.3443  139.3122  158.3841 C.2     1  UNL1        0.1355
      3 N         144.3140  139.6857  157.3024 N.pl3   1  UNL1       -0.1998
      4 C         144.9602  141.0393  157.3092 C.2     1  UNL1        0.3442
      5 N         144.6367  142.0194  158.3976 N.2     1  UNL1       -0.0580
      6 C         143.6669  141.6458  159.4793 C.3     1  UNL1        0.2695
      7 H         144.5264  139.0424  156.5880 H       1  UNL1        0.2983
      8 C         143.3434  142.6260  160.5678 C.ar    1  UNL1        0.0414
      9 C         144.2236  142.7195  161.7788 C.ar    1  UNL1        0.0019
     10 C         143.9001  143.6996  162.8672 C.ar    1  UNL1        0.0113
     11 C         142.6964  144.5862  162.7447 C.ar    1  UNL1        0.0585
     12 CL        142.3729  145.5663  163.8331 Cl      1  UNL1       -0.0822
     13 C         141.8162  144.4927  161.5337 C.ar    1  UNL1        0.0226
     14 C         142.1397  143.5126  160.4452 C.ar    1  UNL1        0.0589
     15 CL        141.2595  143.4191  159.2342 Cl      1  UNL1       -0.0824
     16 C         145.9300  141.4129  156.2275 C.ar    1  UNL1        0.1931
     17 N         147.1293  142.2996  156.3863 N.ar    1  UNL1       -0.2297
     18 C         147.8113  142.4001  155.0540 C.ar    1  UNL1        0.1067
     19 C         147.0333  141.5754  154.0718 C.ar    1  UNL1        0.0577
     20 S         145.8707  140.9653  154.7971 S.2     1  UNL1       -0.0586
     21 C         142.0510  139.9187  160.5542 C.2     1  UNL1        0.3447
     22 O         140.6078  140.3096  160.4354 O.2     1  UNL1       -0.2450
     23 O         142.5245  139.1542  161.7547 O.3     1  UNL1       -0.4455
     24 C         144.4544  139.3560  163.4824 C.3     1  UNL1        0.0513
     25 C         143.9878  139.0996  162.0800 C.3     1  UNL1        0.2089
     26 C         142.6981  137.9585  158.3773 C.3     1  UNL1        0.1407
     27 N         141.7623  137.5796  157.2679 N.3     1  UNL1       -0.2584
     28 C         140.3334  138.0345  157.3038 C.3     1  UNL1        0.1052
     29 C         139.3976  137.6557  156.1943 C.3     1  UNL1        0.1595
     30 O         139.8908  136.8220  155.0490 O.3     1  UNL1       -0.3505
     31 C         141.3197  136.3671  155.0132 C.3     1  UNL1        0.1637
     32 C         142.2555  136.7459  156.1226 C.3     1  UNL1        0.1247
     33 C         143.6844  136.2910  156.0867 C.2     1  UNL1        0.0673
     34 O         144.7611  137.2354  155.6407 O.co2   1  UNL1       -0.5477
     35 O         144.0366  134.8918  156.4967 O.co2   1  UNL1       -0.5477
@<TRIPOS>UNITY_ATOM_ATTR
34 1
charge -1
@<TRIPOS>BOND
     1    24    25    1
     2    25    23    1
     3    23    21    1
     4    21    22    2
     5    21     1    1
     6     1     2    2
     7     2    26    1
     8    26    27    1
     9    27    28    1
    10    28    29    1
    11    29    30    1
    12    30    31    1
    13    31    32    1
    14    32    33    1
    15    33    34   ar
    16    33    35   ar
    17     2     3    1
    18     3     4    1
    19     4    16    1
    20    16    17   ar
    21    17    18   ar
    22    18    19   ar
    23    19    20   ar
    24     4     5    2
    25     5     6    1
    26     6     8    1
    27     8     9   ar
    28     9    10   ar
    29    10    11   ar
    30    11    12    1
    31    11    13   ar
    32    13    14   ar
    33    14    15    1
    34     6     1    1
    35    14     8   ar
    36    32    27    1
    37    20    16   ar
    38     3     7    1
@<TRIPOS>MOLECULE
*****
 35 38 0 0 0
SMALL
GASTEIGER

@<TRIPOS>ATOM
      1 C         140.4084  139.9564  164.1757 C.2     1  UNL1        0.1397
      2 C         140.1740  140.0706  162.6985 C.2     1  UNL1        0.1355
      3 N         140.0694  141.4230  162.0581 N.pl3   1  UNL1       -0.1998
      4 C         140.1993  142.6611  162.8947 C.2     1  UNL1        0.3442
      5 N         140.4337  142.5469  164.3719 N.2     1  UNL1       -0.0580
      6 C         140.5382  141.1946  165.0123 C.3     1  UNL1        0.2695
      7 H         139.9156  141.4979  161.0886 H       1  UNL1        0.2983
      8 C         140.7726  141.0804  166.4896 C.ar    1  UNL1        0.0414
      9 C         139.6724  140.5994  167.3885 C.ar    1  UNL1        0.0019
     10 C         139.9068  140.4852  168.8657 C.ar    1  UNL1        0.0113
     11 C         141.2414  140.8521  169.4439 C.ar    1  UNL1        0.0585
     12 CL        141.4757  140.7379  170.9211 Cl      1  UNL1       -0.0822
     13 C         142.3416  141.3331  168.5450 C.ar    1  UNL1        0.0226
     14 C         142.1072  141.4473  167.0677 C.ar    1  UNL1        0.0589
     15 CL        143.2074  141.9283  166.1688 Cl      1  UNL1       -0.0824
     16 C         140.0947  144.0135  162.2543 C.ar    1  UNL1        0.1931
     17 N         140.5411  144.3690  160.8671 N.ar    1  UNL1       -0.2297
     18 C         140.2477  145.8230  160.6440 C.ar    1  UNL1        0.1067
     19 C         139.6200  146.3662  161.8934 C.ar    1  UNL1        0.0577
     20 S         139.5254  145.2478  162.8885 S.2     1  UNL1       -0.0586
     21 C         140.5129  138.6041  164.8161 C.2     1  UNL1        0.3447
     22 O         139.3252  138.0110  165.5143 O.2     1  UNL1       -0.2450
     23 O         141.8052  137.8448  164.7585 O.3     1  UNL1       -0.4455
     24 C         144.0154  139.1075  164.2381 C.3     1  UNL1        0.0513
     25 C         143.0752  138.4889  165.2299 C.3     1  UNL1        0.2089
     26 C         140.0441  138.8324  161.8618 C.3     1  UNL1        0.1407
     27 N         141.0949  138.5016  160.8437 N.3     1  UNL1       -0.2584
     28 C         142.2725  137.6562  161.2289 C.3     1  UNL1        0.1052
     29 C         143.3233  137.3254  160.2107 C.3     1  UNL1        0.1595
     30 O         143.1963  137.8400  158.8075 O.3     1  UNL1       -0.3505
     31 C         142.0187  138.6854  158.4224 C.3     1  UNL1        0.1637
     32 C         140.9679  139.0162  159.4404 C.3     1  UNL1        0.1247
     33 C         139.7902  139.8616  159.0553 C.2     1  UNL1        0.0673
     34 O         138.5317  139.2132  158.5595 O.co2   1  UNL1       -0.5477
     35 O         139.8711  141.3553  159.1659 O.co2   1  UNL1       -0.5477
@<TRIPOS>UNITY_ATOM_ATTR
34 1
charge -1
@<TRIPOS>BOND
     1    24    25    1
     2    25    23    1
     3    23    21    1
     4    21    22    2
     5    21     1    1
     6     1     2    2
     7     2    26    1
     8    26    27    1
     9    27    28    1
    10    28    29    1
    11    29    30    1
    12    30    31    1
    13    31    32    1
    14    32    33    1
    15    33    34   ar
    16    33    35   ar
    17     2     3    1
    18     3     4    1
    19     4    16    1
    20    16    17   ar
    21    17    18   ar
    22    18    19   ar
    23    19    20   ar
    24     4     5    2
    25     5     6    1
    26     6     8    1
    27     8     9   ar
    28     9    10   ar
    29    10    11   ar
    30    11    12    1
    31    11    13   ar
    32    13    14   ar
    33    14    15    1
    34     6     1    1
    35    14     8   ar
    36    32    27    1
    37    20    16   ar
    38     3     7    1
@<TRIPOS>MOLECULE
*****
 35 38 0 0 0
SMALL
GASTEIGER

@<TRIPOS>ATOM
      1 C         142.4305  139.8962  160.2780 C.2     1  UNL1        0.1397
      2 C         143.2307  140.1954  159.0451 C.2     1  UNL1        0.1355
      3 N         143.4320  139.1330  158.0055 N.pl3   1  UNL1       -0.1998
      4 C         142.8330  137.7715  158.1987 C.2     1  UNL1        0.3442
      5 N         142.0327  137.4723  159.4316 N.2     1  UNL1       -0.0580
      6 C         141.8315  138.5347  160.4712 C.3     1  UNL1        0.2695
      7 H         143.9573  139.3294  157.1963 H       1  UNL1        0.2983
      8 C         141.0311  138.2355  161.7041 C.ar    1  UNL1        0.0414
      9 C         141.7157  137.7234  162.9367 C.ar    1  UNL1        0.0019
     10 C         140.9154  137.4242  164.1695 C.ar    1  UNL1        0.0113
     11 C         139.4305  137.6371  164.1699 C.ar    1  UNL1        0.0585
     12 CL        138.6303  137.3378  165.4028 Cl      1  UNL1       -0.0822
     13 C         138.7460  138.1491  162.9374 C.ar    1  UNL1        0.0226
     14 C         139.5463  138.4483  161.7044 C.ar    1  UNL1        0.0589
     15 CL        138.8618  138.9604  160.4719 Cl      1  UNL1       -0.0824
     16 C         143.0343  136.7091  157.1591 C.ar    1  UNL1        0.1931
     17 N         143.0707  135.2299  157.4055 N.ar    1  UNL1       -0.2297
     18 C         143.2934  134.5460  156.0892 C.ar    1  UNL1        0.1067
     19 C         143.3946  135.6025  155.0292 C.ar    1  UNL1        0.0577
     20 S         143.2345  136.9393  155.6904 S.2     1  UNL1       -0.0586
     21 C         142.2292  140.9586  161.3176 C.2     1  UNL1        0.3447
     22 O         141.1407  141.9767  161.1486 O.2     1  UNL1       -0.2450
     23 O         143.1164  141.0028  162.5263 O.3     1  UNL1       -0.4455
     24 C         144.9376  139.6822  163.8259 C.3     1  UNL1        0.0513
     25 C         144.4068  140.2383  162.5378 C.3     1  UNL1        0.2089
     26 C         143.8298  141.5570  158.8518 C.3     1  UNL1        0.1407
     27 N         143.4722  142.3688  157.6423 N.3     1  UNL1       -0.2584
     28 C         142.2310  143.2111  157.6445 C.3     1  UNL1        0.1052
     29 C         141.8735  144.0230  156.4349 C.3     1  UNL1        0.1595
     30 O         142.7571  143.9926  155.2232 O.3     1  UNL1       -0.3505
     31 C         143.9983  143.1504  155.2210 C.3     1  UNL1        0.1637
     32 C         144.3559  142.3385  156.4305 C.3     1  UNL1        0.1247
     33 C         145.5971  141.4963  156.4284 C.2     1  UNL1        0.0673
     34 O         145.5029  140.0223  156.1662 O.co2   1  UNL1       -0.5477
     35 O         146.9325  142.1279  156.6884 O.co2   1  UNL1       -0.5477
@<TRIPOS>UNITY_ATOM_ATTR
34 1
charge -1
@<TRIPOS>BOND
     1    24    25    1
     2    25    23    1
     3    23    21    1
     4    21    22    2
     5    21     1    1
     6     1     2    2
     7     2    26    1
     8    26    27    1
     9    27    28    1
    10    28    29    1
    11    29    30    1
    12    30    31    1
    13    31    32    1
    14    32    33    1
    15    33    34   ar
    16    33    35   ar
    17     2     3    1
    18     3     4    1
    19     4    16    1
    20    16    17   ar
    21    17    18   ar
    22    18    19   ar
    23    19    20   ar
    24     4     5    2
    25     5     6    1
    26     6     8    1
    27     8     9   ar
    28     9    10   ar
    29    10    11   ar
    30    11    12    1
    31    11    13   ar
    32    13    14   ar
    33    14    15    1
    34     6     1    1
    35    14     8   ar
    36    32    27    1
    37    20    16   ar
    38     3     7    1
@<TRIPOS>MOLECULE
*****
 35 38 0 0 0
SMALL
GASTEIGER

@<TRIPOS>ATOM
      1 C         140.2168  140.9621  160.6375 C.2     1  UNL1        0.1397
      2 C         140.3799  140.1619  159.3793 C.2     1  UNL1        0.1355
      3 N         139.4172  140.3453  158.2437 N.pl3   1  UNL1       -0.1998
      4 C         138.2914  141.3289  158.3663 C.2     1  UNL1        0.3442
      5 N         138.1283  142.1291  159.6245 N.2     1  UNL1       -0.0580
      6 C         139.0910  141.9457  160.7601 C.3     1  UNL1        0.2695
      7 H         139.5242  139.8202  157.4179 H       1  UNL1        0.2983
      8 C         138.9278  142.7459  162.0184 C.ar    1  UNL1        0.0414
      9 C         139.6312  144.0625  162.1663 C.ar    1  UNL1        0.0019
     10 C         139.4681  144.8627  163.4245 C.ar    1  UNL1        0.0113
     11 C         138.6016  144.3463  164.5348 C.ar    1  UNL1        0.0585
     12 CL        138.4385  145.1465  165.7929 Cl      1  UNL1       -0.0822
     13 C         137.8982  143.0297  164.3868 C.ar    1  UNL1        0.0226
     14 C         138.0614  142.2295  163.1285 C.ar    1  UNL1        0.0589
     15 CL        137.3580  140.9129  162.9806 Cl      1  UNL1       -0.0824
     16 C         137.3286  141.5123  157.2308 C.ar    1  UNL1        0.1931
     17 N         136.2247  140.5708  156.8500 N.ar    1  UNL1       -0.2297
     18 C         135.5146  141.1460  155.6605 C.ar    1  UNL1        0.1067
     19 C         136.1796  142.4430  155.3061 C.ar    1  UNL1        0.0577
     20 S         137.3007  142.6694  156.2766 S.2     1  UNL1       -0.0586
     21 C         141.1795  140.7787  161.7731 C.2     1  UNL1        0.3447
     22 O         142.4929  141.5033  161.7673 O.2     1  UNL1       -0.2450
     23 O         140.8289  139.8707  162.9144 O.3     1  UNL1       -0.4455
     24 C         139.2591  137.8047  162.7822 C.3     1  UNL1        0.0513
     25 C         140.6299  138.4039  162.6720 C.3     1  UNL1        0.2089
     26 C         141.5058  139.1783  159.2566 C.3     1  UNL1        0.1407
     27 N         142.6040  139.4155  158.2628 N.3     1  UNL1       -0.2584
     28 C         143.6504  140.4551  158.5352 C.3     1  UNL1        0.1052
     29 C         144.7486  140.6923  157.5414 C.3     1  UNL1        0.1595
     30 O         144.8004  139.8898  156.2751 O.3     1  UNL1       -0.3505
     31 C         143.7540  138.8502  156.0027 C.3     1  UNL1        0.1637
     32 C         142.6558  138.6130  156.9965 C.3     1  UNL1        0.1247
     33 C         141.6094  137.5734  156.7241 C.2     1  UNL1        0.0673
     34 O         140.2069  137.9897  156.3928 O.co2   1  UNL1       -0.5477
     35 O         141.9655  136.1175  156.7829 O.co2   1  UNL1       -0.5477
@<TRIPOS>UNITY_ATOM_ATTR
34 1
charge -1
@<TRIPOS>BOND
     1    24    25    1
     2    25    23    1
     3    23    21    1
     4    21    22    2
     5    21     1    1
     6     1     2    2
     7     2    26    1
     8    26    27    1
     9    27    28    1
    10    28    29    1
    11    29    30    1
    12    30    31    1
    13    31    32    1
    14    32    33    1
    15    33    34   ar
    16    33    35   ar
    17     2     3    1
    18     3     4    1
    19     4    16    1
    20    16    17   ar
    21    17    18   ar
    22    18    19   ar
    23    19    20   ar
    24     4     5    2
    25     5     6    1
    26     6     8    1
    27     8     9   ar
    28     9    10   ar
    29    10    11   ar
    30    11    12    1
    31    11    13   ar
    32    13    14   ar
    33    14    15    1
    34     6     1    1
    35    14     8   ar
    36    32    27    1
    37    20    16   ar
    38     3     7    1
@<TRIPOS>MOLECULE
*****
 35 38 0 0 0
SMALL
GASTEIGER

@<TRIPOS>ATOM
      1 C         142.1012  142.8260  163.7418 C.2     1  UNL1        0.1397
      2 C         141.8570  142.8270  162.2619 C.2     1  UNL1        0.1355
      3 N         140.8110  141.9271  161.6737 N.pl3   1  UNL1       -0.1998
      4 C         140.0092  141.0262  162.5654 C.2     1  UNL1        0.3442
      5 N         140.2533  141.0252  164.0454 N.2     1  UNL1       -0.0580
      6 C         141.2994  141.9251  164.6336 C.3     1  UNL1        0.2695
      7 H         140.6507  141.9278  160.7023 H       1  UNL1        0.2983
      8 C         141.5435  141.9240  166.1136 C.ar    1  UNL1        0.0414
      9 C         142.5976  141.0318  166.6992 C.ar    1  UNL1        0.0019
     10 C         142.8418  141.0307  168.1792 C.ar    1  UNL1        0.0113
     11 C         142.0319  141.9219  169.0737 C.ar    1  UNL1        0.0585
     12 CL        142.2761  141.9208  170.5536 Cl      1  UNL1       -0.0822
     13 C         140.9778  142.8141  168.4881 C.ar    1  UNL1        0.0226
     14 C         140.7337  142.8151  167.0080 C.ar    1  UNL1        0.0589
     15 CL        139.6796  143.7073  166.4224 Cl      1  UNL1       -0.0824
     16 C         138.9631  140.1263  161.9773 C.ar    1  UNL1        0.1931
     17 N         138.0129  140.4831  160.8728 N.ar    1  UNL1       -0.2297
     18 C         137.1461  139.2889  160.6032 C.ar    1  UNL1        0.1067
     19 C         137.5607  138.1941  161.5410 C.ar    1  UNL1        0.0577
     20 S         138.6836  138.7116  162.3902 S.2     1  UNL1       -0.0586
     21 C         143.1473  143.7259  164.3300 C.2     1  UNL1        0.3447
     22 O         142.8876  145.1982  164.4521 O.2     1  UNL1       -0.2450
     23 O         144.4530  143.1536  164.7962 O.3     1  UNL1       -0.4455
     24 C         145.2281  140.7760  164.0915 C.3     1  UNL1        0.0513
     25 C         145.2479  142.2621  163.8886 C.3     1  UNL1        0.2089
     26 C         142.6589  143.7280  161.3700 C.3     1  UNL1        0.1407
     27 N         142.1302  144.1102  160.0193 N.3     1  UNL1       -0.2584
     28 C         142.8977  143.7461  158.7830 C.3     1  UNL1        0.1052
     29 C         142.3689  144.1284  157.4323 C.3     1  UNL1        0.1595
     30 O         141.0728  144.8747  157.3179 O.3     1  UNL1       -0.3505
     31 C         140.3054  145.2388  158.5543 C.3     1  UNL1        0.1637
     32 C         140.8341  144.8566  159.9049 C.3     1  UNL1        0.1247
     33 C         140.0667  145.2207  161.1413 C.2     1  UNL1        0.0673
     34 O         138.9100  144.3736  161.5827 O.co2   1  UNL1       -0.5477
     35 O         140.4558  146.4317  161.9361 O.co2   1  UNL1       -0.5477
@<TRIPOS>UNITY_ATOM_ATTR
34 1
charge -1
@<TRIPOS>BOND
     1    24    25    1
     2    25    23    1
     3    23    21    1
     4    21    22    2
     5    21     1    1
     6     1     2    2
     7     2    26    1
     8    26    27    1
     9    27    28    1
    10    28    29    1
    11    29    30    1
    12    30    31    1
    13    31    32    1
    14    32    33    1
    15    33    34   ar
    16    33    35   ar
    17     2     3    1
    18     3     4    1
    19     4    16    1
    20    16    17   ar
    21    17    18   ar
    22    18    19   ar
    23    19    20   ar
    24     4     5    2
    25     5     6    1
    26     6     8    1
    27     8     9   ar
    28     9    10   ar
    29    10    11   ar
    30    11    12    1
    31    11    13   ar
    32    13    14   ar
    33    14    15    1
    34     6     1    1
    35    14     8   ar
    36    32    27    1
    37    20    16   ar
    38     3     7    1
