@<TRIPOS>MOLECULE
*****
 45 49 0 0 0
SMALL
GASTEIGER

@<TRIPOS>ATOM
      1 C         144.3504  141.7824  163.8007 C.ar    1  UNL1        0.0846
      2 C         144.2605  140.2867  163.7301 C.ar    1  UNL1        0.0174
      3 C         144.0605  139.6090  162.4069 C.ar    1  UNL1       -0.0031
      4 C         143.9503  140.4270  161.1544 C.ar    1  UNL1       -0.0218
      5 C         144.0402  141.9225  161.2250 C.ar    1  UNL1        0.0091
      6 C         144.2402  142.6003  162.5481 C.ar    1  UNL1        0.1477
      7 C         143.9561  142.9184  160.1064 C.3     1  UNL1        0.0292
      8 C         143.7615  142.6644  158.6408 C.3     1  UNL1        0.0062
      9 C         143.6028  141.3521  157.9321 C.3     1  UNL1        0.0166
     10 C         143.5995  139.9694  158.5137 C.3     1  UNL1        0.0619
     11 C         143.7542  139.5577  159.9477 C.3     1  UNL1        0.0421
     12 N         143.4176  138.8506  157.5313 N.3     1  UNL1       -0.2713
     13 C         142.6091  137.6449  157.9091 C.3     1  UNL1        0.0896
     14 C         142.4271  136.5260  156.9267 C.3     1  UNL1        0.0897
     15 N         143.0537  136.6128  155.5665 N.3     1  UNL1       -0.2682
     16 C         143.8622  137.8185  155.1888 C.3     1  UNL1        0.0897
     17 C         144.0441  138.9374  156.1712 C.3     1  UNL1        0.0896
     18 C         142.8717  135.4940  154.5842 C.3     1  UNL1        0.1043
     19 C         143.3402  134.1109  154.9274 C.3     1  UNL1        0.1544
     20 O         144.3174  133.9063  156.0468 O.3     1  UNL1       -0.3805
     21 H         145.1668  134.3119  155.8127 H       1  UNL1        0.2105
     22 N         144.5505  142.4600  165.1238 N.pl3   1  UNL1       -0.2801
     23 H         145.3867  142.9466  165.3062 H       1  UNL1        0.1552
     24 C         140.9905  142.0143  166.8203 C.ar    1  UNL1        0.1472
     25 N         142.0645  142.0780  165.7751 N.ar    1  UNL1       -0.1976
     26 C         143.4764  142.3963  166.1690 C.ar    1  UNL1        0.2220
     27 N         143.8143  142.6509  167.6082 N.ar    1  UNL1       -0.2110
     28 C         142.7404  142.5872  168.6533 C.ar    1  UNL1        0.1160
     29 C         141.3284  142.2689  168.2594 C.ar    1  UNL1        0.1085
     30 CL        140.2544  142.2052  169.3046 Cl      1  UNL1       -0.0777
     31 N         139.5786  141.6960  166.4263 N.pl3   1  UNL1       -0.2970
     32 H         139.0537  141.0513  166.9538 H       1  UNL1        0.1536
     33 C         138.3613  141.5276  164.1372 C.ar    1  UNL1        0.0668
     34 C         137.7491  142.1915  162.9395 C.ar    1  UNL1        0.0058
     35 C         137.7419  143.6878  162.8333 C.ar    1  UNL1        0.0002
     36 C         138.3469  144.5201  163.9247 C.ar    1  UNL1        0.0013
     37 C         138.9592  143.8562  165.1223 C.ar    1  UNL1        0.0148
     38 C         138.9664  142.3599  165.2286 C.ar    1  UNL1        0.0537
     39 C         138.7426  137.7005  163.1586 C.3     1  UNL1        0.1109
     40 N         138.7354  139.1967  163.0524 N.am    1  UNL1       -0.2991
     41 C         138.3685  140.0314  164.2434 C.2     1  UNL1        0.2471
     42 O         138.0086  139.3699  165.5407 O.2     1  UNL1       -0.2701
     43 H         138.9716  139.6309  162.2010 H       1  UNL1        0.1498
     44 O         144.3301  144.0959  162.6186 O.3     1  UNL1       -0.4705
     45 C         143.1694  144.8935  163.1350 C.3     1  UNL1        0.2525
@<TRIPOS>BOND
     1    39    40    1
     2    40    41   am
     3    41    42    2
     4    41    33    1
     5    33    34   ar
     6    34    35   ar
     7    35    36   ar
     8    36    37   ar
     9    37    38   ar
    10    38    31    1
    11    31    24    1
    12    24    25   ar
    13    25    26   ar
    14    26    22    1
    15    22     1    1
    16     1     2   ar
    17     2     3   ar
    18     3     4   ar
    19     4     5   ar
    20     5     6   ar
    21     6    44    1
    22    44    45    1
    23     5     7    1
    24     7     8    1
    25     8     9    1
    26     9    10    1
    27    10    12    1
    28    12    13    1
    29    13    14    1
    30    14    15    1
    31    15    18    1
    32    18    19    1
    33    19    20    1
    34    15    16    1
    35    16    17    1
    36    10    11    1
    37    26    27   ar
    38    27    28   ar
    39    28    29   ar
    40    29    30    1
    41    38    33   ar
    42    29    24   ar
    43     6     1   ar
    44    17    12    1
    45    11     4    1
    46    40    43    1
    47    31    32    1
    48    22    23    1
    49    20    21    1
@<TRIPOS>MOLECULE
*****
 45 49 0 0 0
SMALL
GASTEIGER

@<TRIPOS>ATOM
      1 C         140.0295  138.6880  159.7783 C.ar    1  UNL1        0.0846
      2 C         141.1284  138.3364  160.7369 C.ar    1  UNL1        0.0174
      3 C         141.0951  138.8620  162.1415 C.ar    1  UNL1       -0.0031
      4 C         139.9628  139.7392  162.5873 C.ar    1  UNL1       -0.0218
      5 C         138.8641  140.0907  161.6287 C.ar    1  UNL1        0.0091
      6 C         138.8974  139.5651  160.2242 C.ar    1  UNL1        0.1477
      7 C         137.6528  140.9431  161.8662 C.3     1  UNL1        0.0292
      8 C         137.2413  141.6545  163.1211 C.3     1  UNL1        0.0062
      9 C         137.9394  141.6891  164.4483 C.3     1  UNL1        0.0166
     10 C         139.2214  141.0210  164.8485 C.3     1  UNL1        0.0619
     11 C         140.1219  140.1532  164.0203 C.3     1  UNL1        0.0421
     12 N         139.6609  141.2511  166.2640 N.3     1  UNL1       -0.2713
     13 C         140.2860  142.5582  166.6522 C.3     1  UNL1        0.0896
     14 C         140.7256  142.7883  168.0678 C.3     1  UNL1        0.0897
     15 N         140.5400  141.7113  169.0952 N.3     1  UNL1       -0.2682
     16 C         139.9149  140.4041  168.7071 C.3     1  UNL1        0.0897
     17 C         139.4753  140.1740  167.2914 C.3     1  UNL1        0.0896
     18 C         140.9796  141.9414  170.5108 C.3     1  UNL1        0.1043
     19 C         141.3441  140.7758  171.3818 C.3     1  UNL1        0.1544
     20 O         142.7446  140.2389  171.3689 O.3     1  UNL1       -0.3805
     21 H         142.9364  139.8570  170.4981 H       1  UNL1        0.2105
     22 N         140.0629  138.1623  158.3738 N.pl3   1  UNL1       -0.2801
     23 H         139.2794  137.6944  158.0046 H       1  UNL1        0.1552
     24 C         143.2248  137.3438  156.1193 C.ar    1  UNL1        0.1472
     25 N         141.9976  137.1564  156.9612 N.ar    1  UNL1       -0.1976
     26 C         141.2902  138.3497  157.5319 C.ar    1  UNL1        0.2220
     27 N         141.8101  139.7304  157.2607 N.ar    1  UNL1       -0.2110
     28 C         143.0372  139.9178  156.4189 C.ar    1  UNL1        0.1160
     29 C         143.7446  138.7245  155.8481 C.ar    1  UNL1        0.1085
     30 CL        144.9719  138.9119  155.0062 Cl      1  UNL1       -0.0777
     31 N         143.9321  136.1505  155.5486 N.pl3   1  UNL1       -0.2970
     32 H         144.9143  136.0957  155.5867 H       1  UNL1        0.1536
     33 C         143.1091  133.6863  155.5636 C.ar    1  UNL1        0.0668
     34 C         142.3198  132.5765  154.9348 C.ar    1  UNL1        0.0058
     35 C         141.5642  132.8211  153.6623 C.ar    1  UNL1        0.0002
     36 C         141.5980  134.1754  153.0184 C.ar    1  UNL1        0.0013
     37 C         142.3873  135.2853  153.6472 C.ar    1  UNL1        0.0148
     38 C         143.1428  135.0407  154.9198 C.ar    1  UNL1        0.0537
     39 C         145.7320  132.1908  158.1392 C.3     1  UNL1        0.1109
     40 N         144.9764  132.4354  156.8666 N.am    1  UNL1       -0.2991
     41 C         143.8645  133.4417  156.8361 C.2     1  UNL1        0.2471
     42 O         143.5082  134.2035  158.0782 O.2     1  UNL1       -0.2701
     43 H         145.2104  131.9354  156.0514 H       1  UNL1        0.1498
     44 O         137.7985  139.9167  159.2656 O.3     1  UNL1       -0.4705
     45 C         138.0209  140.9737  158.2248 C.3     1  UNL1        0.2525
@<TRIPOS>BOND
     1    39    40    1
     2    40    41   am
     3    41    42    2
     4    41    33    1
     5    33    34   ar
     6    34    35   ar
     7    35    36   ar
     8    36    37   ar
     9    37    38   ar
    10    38    31    1
    11    31    24    1
    12    24    25   ar
    13    25    26   ar
    14    26    22    1
    15    22     1    1
    16     1     2   ar
    17     2     3   ar
    18     3     4   ar
    19     4     5   ar
    20     5     6   ar
    21     6    44    1
    22    44    45    1
    23     5     7    1
    24     7     8    1
    25     8     9    1
    26     9    10    1
    27    10    12    1
    28    12    13    1
    29    13    14    1
    30    14    15    1
    31    15    18    1
    32    18    19    1
    33    19    20    1
    34    15    16    1
    35    16    17    1
    36    10    11    1
    37    26    27   ar
    38    27    28   ar
    39    28    29   ar
    40    29    30    1
    41    38    33   ar
    42    29    24   ar
    43     6     1   ar
    44    17    12    1
    45    11     4    1
    46    40    43    1
    47    31    32    1
    48    22    23    1
    49    20    21    1
@<TRIPOS>MOLECULE
*****
 45 49 0 0 0
SMALL
GASTEIGER

@<TRIPOS>ATOM
      1 C         144.2194  141.6571  163.8390 C.ar    1  UNL1        0.0846
      2 C         144.1063  140.1637  163.7551 C.ar    1  UNL1        0.0174
      3 C         143.9225  139.4990  162.4230 C.ar    1  UNL1       -0.0031
      4 C         143.8519  140.3279  161.1747 C.ar    1  UNL1       -0.0218
      5 C         143.9650  141.8211  161.2586 C.ar    1  UNL1        0.0091
      6 C         144.1487  142.4858  162.5907 C.ar    1  UNL1        0.1477
      7 C         143.9207  142.8264  160.1461 C.3     1  UNL1        0.0292
      8 C         143.7523  142.5864  158.6750 C.3     1  UNL1        0.0062
      9 C         143.5867  141.2821  157.9531 C.3     1  UNL1        0.0166
     10 C         143.5485  139.8955  158.5239 C.3     1  UNL1        0.0619
     11 C         143.6665  139.4708  159.9577 C.3     1  UNL1        0.0421
     12 N         143.3685  138.7870  157.5295 N.3     1  UNL1       -0.2713
     13 C         143.8065  138.9767  156.1075 C.3     1  UNL1        0.0896
     14 C         143.6264  137.8682  155.1130 C.3     1  UNL1        0.0897
     15 N         143.0085  136.5700  155.5406 N.3     1  UNL1       -0.2682
     16 C         142.5706  136.3803  156.9627 C.3     1  UNL1        0.0897
     17 C         142.7506  137.4889  157.9572 C.3     1  UNL1        0.0896
     18 C         142.8285  135.4616  154.5463 C.3     1  UNL1        0.1043
     19 C         142.5156  134.0729  155.0195 C.3     1  UNL1        0.1544
     20 O         141.1191  133.7202  155.4382 O.3     1  UNL1       -0.3805
     21 H         140.8847  134.2201  156.2357 H       1  UNL1        0.2105
     22 N         144.4031  142.3216  165.1711 N.pl3   1  UNL1       -0.2801
     23 H         145.2392  142.8015  165.3706 H       1  UNL1        0.1552
     24 C         140.8334  141.7927  166.8227 C.ar    1  UNL1        0.1472
     25 N         141.9236  141.8593  165.7946 N.ar    1  UNL1       -0.1976
     26 C         143.3129  142.2549  166.1992 C.ar    1  UNL1        0.2220
     27 N         143.6118  142.5838  167.6319 N.ar    1  UNL1       -0.2110
     28 C         142.5216  142.5172  168.6599 C.ar    1  UNL1        0.1160
     29 C         141.1324  142.1216  168.2553 C.ar    1  UNL1        0.1085
     30 CL        140.0421  142.0549  169.2834 Cl      1  UNL1       -0.0777
     31 N         139.4443  141.3971  166.4181 N.pl3   1  UNL1       -0.2970
     32 H         138.6693  141.8920  166.7698 H       1  UNL1        0.1536
     33 C         139.0125  140.5045  164.0166 C.ar    1  UNL1        0.0668
     34 C         138.8041  139.3548  163.0760 C.ar    1  UNL1        0.0058
     35 C         138.8191  137.9479  163.5962 C.ar    1  UNL1        0.0002
     36 C         139.0424  137.6907  165.0570 C.ar    1  UNL1        0.0013
     37 C         139.2508  138.8405  165.9976 C.ar    1  UNL1        0.0148
     38 C         139.2359  140.2474  165.4775 C.ar    1  UNL1        0.0537
     39 C         137.7283  144.1362  163.0620 C.3     1  UNL1        0.1109
     40 N         137.7433  142.7294  163.5822 N.am    1  UNL1       -0.2991
     41 C         138.9976  141.9112  163.4964 C.2     1  UNL1        0.2471
     42 O         140.2369  142.5000  162.8903 O.2     1  UNL1       -0.2701
     43 H         136.9298  142.3430  163.9800 H       1  UNL1        0.1498
     44 O         144.2618  143.9792  162.6745 O.3     1  UNL1       -0.4705
     45 C         143.0895  144.7956  163.1314 C.3     1  UNL1        0.2525
@<TRIPOS>BOND
     1    39    40    1
     2    40    41   am
     3    41    42    2
     4    41    33    1
     5    33    34   ar
     6    34    35   ar
     7    35    36   ar
     8    36    37   ar
     9    37    38   ar
    10    38    31    1
    11    31    24    1
    12    24    25   ar
    13    25    26   ar
    14    26    22    1
    15    22     1    1
    16     1     2   ar
    17     2     3   ar
    18     3     4   ar
    19     4     5   ar
    20     5     6   ar
    21     6    44    1
    22    44    45    1
    23     5     7    1
    24     7     8    1
    25     8     9    1
    26     9    10    1
    27    10    12    1
    28    12    13    1
    29    13    14    1
    30    14    15    1
    31    15    18    1
    32    18    19    1
    33    19    20    1
    34    15    16    1
    35    16    17    1
    36    10    11    1
    37    26    27   ar
    38    27    28   ar
    39    28    29   ar
    40    29    30    1
    41    38    33   ar
    42    29    24   ar
    43     6     1   ar
    44    17    12    1
    45    11     4    1
    46    40    43    1
    47    31    32    1
    48    22    23    1
    49    20    21    1
@<TRIPOS>MOLECULE
*****
 45 49 0 0 0
SMALL
GASTEIGER

@<TRIPOS>ATOM
      1 C         141.6508  142.8028  158.3409 C.ar    1  UNL1        0.0846
      2 C         142.4724  144.0569  158.3872 C.ar    1  UNL1        0.0174
      3 C         142.0046  145.2870  157.6673 C.ar    1  UNL1       -0.0031
      4 C         140.7152  145.2628  156.9012 C.ar    1  UNL1       -0.0218
      5 C         139.8937  144.0088  156.8550 C.ar    1  UNL1        0.0091
      6 C         140.3614  142.7787  157.5748 C.ar    1  UNL1        0.1477
      7 C         138.5882  143.7711  156.1554 C.3     1  UNL1        0.0292
      8 C         137.7820  144.7290  155.3292 C.3     1  UNL1        0.0062
      9 C         138.0820  146.1609  154.9987 C.3     1  UNL1        0.0166
     10 C         139.2624  146.9889  155.4125 C.3     1  UNL1        0.0619
     11 C         140.4343  146.5891  156.2593 C.3     1  UNL1        0.0421
     12 N         139.2723  148.4034  154.9138 N.3     1  UNL1       -0.2713
     13 C         138.6608  149.4948  155.7415 C.3     1  UNL1        0.0896
     14 C         138.6706  150.9095  155.2427 C.3     1  UNL1        0.0897
     15 N         139.2919  151.2327  153.9163 N.3     1  UNL1       -0.2682
     16 C         139.9034  150.1414  153.0885 C.3     1  UNL1        0.0897
     17 C         139.8935  148.7267  153.5873 C.3     1  UNL1        0.0896
     18 C         139.3017  152.6473  153.4175 C.3     1  UNL1        0.1043
     19 C         138.1530  153.5603  153.7288 C.3     1  UNL1        0.1544
     20 O         136.9871  153.6461  152.7891 O.3     1  UNL1       -0.3805
     21 H         137.2776  154.0318  151.9478 H       1  UNL1        0.2105
     22 N         142.1186  141.5728  159.0608 N.pl3   1  UNL1       -0.2801
     23 H         142.0550  140.6927  158.6242 H       1  UNL1        0.1552
     24 C         142.3480  141.6485  163.0221 C.ar    1  UNL1        0.1472
     25 N         141.7832  141.5375  161.6370 N.ar    1  UNL1       -0.1976
     26 C         142.6834  141.6838  160.4460 C.ar    1  UNL1        0.2220
     27 N         144.1484  141.9410  160.6403 N.ar    1  UNL1       -0.2110
     28 C         144.7132  142.0519  162.0254 C.ar    1  UNL1        0.1160
     29 C         143.8130  141.9057  163.2163 C.ar    1  UNL1        0.1085
     30 CL        144.3778  142.0167  164.6015 Cl      1  UNL1       -0.0777
     31 N         141.4478  141.5023  164.2130 N.pl3   1  UNL1       -0.2970
     32 H         141.6471  140.8266  164.9007 H       1  UNL1        0.1536
     33 C         138.8834  141.8621  164.0026 C.ar    1  UNL1        0.0668
     34 C         137.6795  142.7454  164.1456 C.ar    1  UNL1        0.0058
     35 C         137.8362  144.1522  164.6421 C.ar    1  UNL1        0.0002
     36 C         139.1967  144.6757  164.9955 C.ar    1  UNL1        0.0013
     37 C         140.4005  143.7924  164.8525 C.ar    1  UNL1        0.0148
     38 C         140.2439  142.3856  164.3560 C.ar    1  UNL1        0.0537
     39 C         137.7777  138.7761  161.7656 C.3     1  UNL1        0.1109
     40 N         137.9344  140.1829  162.2621 N.am    1  UNL1       -0.2991
     41 C         138.7267  140.4553  163.5062 C.2     1  UNL1        0.2471
     42 O         139.3624  139.3210  164.2540 O.2     1  UNL1       -0.2701
     43 H         137.5172  140.9274  161.7713 H       1  UNL1        0.1498
     44 O         139.5398  141.5246  157.5285 O.3     1  UNL1       -0.4705
     45 C         138.6427  141.1729  158.6780 C.3     1  UNL1        0.2525
@<TRIPOS>BOND
     1    39    40    1
     2    40    41   am
     3    41    42    2
     4    41    33    1
     5    33    34   ar
     6    34    35   ar
     7    35    36   ar
     8    36    37   ar
     9    37    38   ar
    10    38    31    1
    11    31    24    1
    12    24    25   ar
    13    25    26   ar
    14    26    22    1
    15    22     1    1
    16     1     2   ar
    17     2     3   ar
    18     3     4   ar
    19     4     5   ar
    20     5     6   ar
    21     6    44    1
    22    44    45    1
    23     5     7    1
    24     7     8    1
    25     8     9    1
    26     9    10    1
    27    10    12    1
    28    12    13    1
    29    13    14    1
    30    14    15    1
    31    15    18    1
    32    18    19    1
    33    19    20    1
    34    15    16    1
    35    16    17    1
    36    10    11    1
    37    26    27   ar
    38    27    28   ar
    39    28    29   ar
    40    29    30    1
    41    38    33   ar
    42    29    24   ar
    43     6     1   ar
    44    17    12    1
    45    11     4    1
    46    40    43    1
    47    31    32    1
    48    22    23    1
    49    20    21    1
@<TRIPOS>MOLECULE
*****
 45 49 0 0 0
SMALL
GASTEIGER

@<TRIPOS>ATOM
      1 C         143.2389  141.3403  160.9150 C.ar    1  UNL1        0.0846
      2 C         143.6725  140.0064  161.4467 C.ar    1  UNL1        0.0174
      3 C         143.5190  138.7764  160.6019 C.ar    1  UNL1       -0.0031
      4 C         142.9317  138.8804  159.2255 C.ar    1  UNL1       -0.0218
      5 C         142.4982  140.2142  158.6939 C.ar    1  UNL1        0.0091
      6 C         142.6517  141.4442  159.5386 C.ar    1  UNL1        0.1477
      7 C         141.8934  140.5377  157.3598 C.3     1  UNL1        0.0292
      8 C         141.5730  139.6070  156.2279 C.3     1  UNL1        0.0062
      9 C         141.7781  138.1232  156.1505 C.3     1  UNL1        0.0166
     10 C         142.3543  137.2034  157.1859 C.3     1  UNL1        0.0619
     11 C         142.8677  137.5404  158.5544 C.3     1  UNL1        0.0421
     12 N         142.4266  135.7552  156.8020 N.3     1  UNL1       -0.2713
     13 C         143.3437  134.8278  157.5430 C.3     1  UNL1        0.0896
     14 C         143.4160  133.3795  157.1590 C.3     1  UNL1        0.0897
     15 N         142.5713  132.8586  156.0342 N.3     1  UNL1       -0.2682
     16 C         141.6542  133.7861  155.2933 C.3     1  UNL1        0.0897
     17 C         141.5819  135.2344  155.6772 C.3     1  UNL1        0.0896
     18 C         142.6437  131.4105  155.6504 C.3     1  UNL1        0.1043
     19 C         143.7825  130.5623  156.1340 C.3     1  UNL1        0.1544
     20 O         145.0791  130.5471  155.3802 O.3     1  UNL1       -0.3805
     21 H         144.9405  130.1496  154.5063 H       1  UNL1        0.2105
     22 N         143.3925  142.5702  161.7598 N.pl3   1  UNL1       -0.2801
     23 H         144.2636  143.0261  161.8117 H       1  UNL1        0.1552
     24 C         139.8157  142.7994  163.4639 C.ar    1  UNL1        0.1472
     25 N         140.9893  142.2641  162.6983 N.ar    1  UNL1       -0.1976
     26 C         142.2190  143.1056  162.5254 C.ar    1  UNL1        0.2220
     27 N         142.2750  144.4824  163.1181 N.ar    1  UNL1       -0.2110
     28 C         141.1015  145.0177  163.8837 C.ar    1  UNL1        0.1160
     29 C         139.8718  144.1762  164.0566 C.ar    1  UNL1        0.1085
     30 CL        138.6982  144.7115  164.8222 Cl      1  UNL1       -0.0777
     31 N         138.5861  141.9579  163.6368 N.pl3   1  UNL1       -0.2970
     32 H         137.7001  142.3315  163.4254 H       1  UNL1        0.1536
     33 C         138.6201  139.4032  163.1651 C.ar    1  UNL1        0.0668
     34 C         138.7404  137.9923  163.6600 C.ar    1  UNL1        0.0058
     35 C         138.9471  137.7252  165.1215 C.ar    1  UNL1        0.0002
     36 C         139.0334  138.8689  166.0882 C.ar    1  UNL1        0.0013
     37 C         138.9131  140.2798  165.5932 C.ar    1  UNL1        0.0148
     38 C         138.7064  140.5470  164.1317 C.ar    1  UNL1        0.0537
     39 C         139.0640  139.2446  159.2245 C.3     1  UNL1        0.1109
     40 N         139.2706  138.9775  160.6861 N.am    1  UNL1       -0.2991
     41 C         138.4135  139.6702  161.7037 C.2     1  UNL1        0.2471
     42 O         137.3497  140.6300  161.2597 O.2     1  UNL1       -0.2701
     43 H         139.9688  138.3476  160.9774 H       1  UNL1        0.1498
     44 O         142.2181  142.7782  159.0070 O.3     1  UNL1       -0.4705
     45 C         143.2059  143.6636  158.3069 C.3     1  UNL1        0.2525
@<TRIPOS>BOND
     1    39    40    1
     2    40    41   am
     3    41    42    2
     4    41    33    1
     5    33    34   ar
     6    34    35   ar
     7    35    36   ar
     8    36    37   ar
     9    37    38   ar
    10    38    31    1
    11    31    24    1
    12    24    25   ar
    13    25    26   ar
    14    26    22    1
    15    22     1    1
    16     1     2   ar
    17     2     3   ar
    18     3     4   ar
    19     4     5   ar
    20     5     6   ar
    21     6    44    1
    22    44    45    1
    23     5     7    1
    24     7     8    1
    25     8     9    1
    26     9    10    1
    27    10    12    1
    28    12    13    1
    29    13    14    1
    30    14    15    1
    31    15    18    1
    32    18    19    1
    33    19    20    1
    34    15    16    1
    35    16    17    1
    36    10    11    1
    37    26    27   ar
    38    27    28   ar
    39    28    29   ar
    40    29    30    1
    41    38    33   ar
    42    29    24   ar
    43     6     1   ar
    44    17    12    1
    45    11     4    1
    46    40    43    1
    47    31    32    1
    48    22    23    1
    49    20    21    1
@<TRIPOS>MOLECULE
*****
 45 49 0 0 0
SMALL
GASTEIGER

@<TRIPOS>ATOM
      1 C         139.7036  140.0851  161.1987 C.ar    1  UNL1        0.0846
      2 C         138.4741  140.7618  160.6692 C.ar    1  UNL1        0.0174
      3 C         138.6034  141.9347  159.7431 C.ar    1  UNL1       -0.0031
      4 C         139.9623  142.4309  159.3465 C.ar    1  UNL1       -0.0218
      5 C         141.1917  141.7542  159.8759 C.ar    1  UNL1        0.0091
      6 C         141.0625  140.5813  160.8020 C.ar    1  UNL1        0.1477
      7 C         142.6302  142.0856  159.6089 C.3     1  UNL1        0.0292
      8 C         143.1942  143.1757  158.7465 C.3     1  UNL1        0.0062
      9 C         142.4592  144.2034  157.9383 C.3     1  UNL1        0.0166
     10 C         140.9786  144.3951  157.7926 C.3     1  UNL1        0.0619
     11 C         139.8674  143.6062  158.4193 C.3     1  UNL1        0.0421
     12 N         140.5531  145.5249  156.9026 N.3     1  UNL1       -0.2713
     13 C         139.5738  146.5455  157.4023 C.3     1  UNL1        0.0896
     14 C         139.1482  147.6754  156.5121 C.3     1  UNL1        0.0897
     15 N         139.7018  147.7848  155.1224 N.3     1  UNL1       -0.2682
     16 C         140.6811  146.7643  154.6226 C.3     1  UNL1        0.0897
     17 C         141.1067  145.6343  155.5128 C.3     1  UNL1        0.0896
     18 C         139.2763  148.9146  154.2323 C.3     1  UNL1        0.1043
     19 C         139.3555  150.3290  154.7259 C.3     1  UNL1        0.1544
     20 O         138.1631  150.9636  155.3780 O.3     1  UNL1       -0.3805
     21 H         137.4507  151.0587  154.7266 H       1  UNL1        0.2105
     22 N         139.5743  138.9122  162.1247 N.pl3   1  UNL1       -0.2801
     23 H         139.5855  137.9964  161.7637 H       1  UNL1        0.1552
     24 C         139.8095  140.6145  165.7021 C.ar    1  UNL1        0.1472
     25 N         139.9560  140.3919  164.2259 N.ar    1  UNL1       -0.1976
     26 C         139.4277  139.1348  163.6009 C.ar    1  UNL1        0.2220
     27 N         138.7527  138.1004  164.4520 N.ar    1  UNL1       -0.2110
     28 C         138.6061  138.3229  165.9281 C.ar    1  UNL1        0.1160
     29 C         139.1345  139.5800  166.5532 C.ar    1  UNL1        0.1085
     30 CL        138.9879  139.8026  168.0293 Cl      1  UNL1       -0.0777
     31 N         140.3378  141.8716  166.3270 N.pl3   1  UNL1       -0.2970
     32 H         139.9303  142.2197  167.1528 H       1  UNL1        0.1536
     33 C         141.2273  143.6875  164.6957 C.ar    1  UNL1        0.0668
     34 C         142.3766  144.4142  164.0624 C.ar    1  UNL1        0.0058
     35 C         143.7858  144.0515  164.4270 C.ar    1  UNL1        0.0002
     36 C         144.0456  142.9623  165.4250 C.ar    1  UNL1        0.0013
     37 C         142.8963  142.2356  166.0583 C.ar    1  UNL1        0.0148
     38 C         141.4871  142.5982  165.6937 C.ar    1  UNL1        0.0537
     39 C         137.7352  143.7342  162.8109 C.3     1  UNL1        0.1109
     40 N         139.1443  143.3716  163.1756 N.am    1  UNL1       -0.2991
     41 C         139.8183  144.0502  164.3311 C.2     1  UNL1        0.2471
     42 O         139.0832  145.0914  165.1219 O.2     1  UNL1       -0.2701
     43 H         139.6267  142.6882  162.6565 H       1  UNL1        0.1498
     44 O         142.2920  139.9046  161.3314 O.3     1  UNL1       -0.4705
     45 C         142.9243  140.3862  162.6034 C.3     1  UNL1        0.2525
@<TRIPOS>BOND
     1    39    40    1
     2    40    41   am
     3    41    42    2
     4    41    33    1
     5    33    34   ar
     6    34    35   ar
     7    35    36   ar
     8    36    37   ar
     9    37    38   ar
    10    38    31    1
    11    31    24    1
    12    24    25   ar
    13    25    26   ar
    14    26    22    1
    15    22     1    1
    16     1     2   ar
    17     2     3   ar
    18     3     4   ar
    19     4     5   ar
    20     5     6   ar
    21     6    44    1
    22    44    45    1
    23     5     7    1
    24     7     8    1
    25     8     9    1
    26     9    10    1
    27    10    12    1
    28    12    13    1
    29    13    14    1
    30    14    15    1
    31    15    18    1
    32    18    19    1
    33    19    20    1
    34    15    16    1
    35    16    17    1
    36    10    11    1
    37    26    27   ar
    38    27    28   ar
    39    28    29   ar
    40    29    30    1
    41    38    33   ar
    42    29    24   ar
    43     6     1   ar
    44    17    12    1
    45    11     4    1
    46    40    43    1
    47    31    32    1
    48    22    23    1
    49    20    21    1
@<TRIPOS>MOLECULE
*****
 45 49 0 0 0
SMALL
GASTEIGER

@<TRIPOS>ATOM
      1 C         138.1611  140.0350  159.8849 C.ar    1  UNL1        0.0846
      2 C         137.5197  140.8594  160.9614 C.ar    1  UNL1        0.0174
      3 C         138.0107  140.7597  162.3753 C.ar    1  UNL1       -0.0031
      4 C         139.1431  139.8356  162.7126 C.ar    1  UNL1       -0.0218
      5 C         139.7845  139.0113  161.6361 C.ar    1  UNL1        0.0091
      6 C         139.2936  139.1109  160.2222 C.ar    1  UNL1        0.1477
      7 C         140.9172  138.0351  161.7552 C.3     1  UNL1        0.0292
      8 C         141.6883  137.6423  162.9806 C.3     1  UNL1        0.0062
      9 C         141.5170  138.1286  164.3891 C.3     1  UNL1        0.0166
     10 C         140.5325  139.1278  164.9204 C.3     1  UNL1        0.0619
     11 C         139.4760  139.8875  164.1743 C.3     1  UNL1        0.0421
     12 N         140.6154  139.4038  166.3924 N.3     1  UNL1       -0.2713
     13 C         141.9504  139.4350  167.0756 C.3     1  UNL1        0.0896
     14 C         142.0333  139.7110  168.5478 C.3     1  UNL1        0.0897
     15 N         140.7811  139.9558  169.3366 N.3     1  UNL1       -0.2682
     16 C         139.4461  139.9245  168.6534 C.3     1  UNL1        0.0897
     17 C         139.3632  139.6485  167.1813 C.3     1  UNL1        0.0896
     18 C         140.8640  140.2318  170.8086 C.3     1  UNL1        0.1043
     19 C         141.3924  141.5482  171.2963 C.3     1  UNL1        0.1544
     20 O         140.4882  142.4941  172.0294 O.3     1  UNL1       -0.3805
     21 H         139.7952  142.8099  171.4287 H       1  UNL1        0.2105
     22 N         137.6701  140.1347  158.4710 N.pl3   1  UNL1       -0.2801
     23 H         137.1874  139.3798  158.0632 H       1  UNL1        0.1552
     24 C         139.2936  143.5451  157.2527 C.ar    1  UNL1        0.1472
     25 N         139.0491  142.2951  158.0450 N.ar    1  UNL1       -0.1976
     26 C         137.9146  141.3847  157.6787 C.ar    1  UNL1        0.2220
     27 N         137.0246  141.7244  156.5199 N.ar    1  UNL1       -0.2110
     28 C         137.2690  142.9743  155.7276 C.ar    1  UNL1        0.1160
     29 C         138.4035  143.8847  156.0939 C.ar    1  UNL1        0.1085
     30 CL        138.6480  145.1346  155.3016 Cl      1  UNL1       -0.0777
     31 N         140.4280  144.4554  157.6190 N.pl3   1  UNL1       -0.2970
     32 H         140.4036  145.4034  157.3545 H       1  UNL1        0.1536
     33 C         141.6058  143.9870  159.8870 C.ar    1  UNL1        0.0668
     34 C         142.7775  143.4529  160.6564 C.ar    1  UNL1        0.0058
     35 C         143.9430  142.8530  159.9272 C.ar    1  UNL1        0.0002
     36 C         143.9370  142.7872  158.4287 C.ar    1  UNL1        0.0013
     37 C         142.7653  143.3214  157.6593 C.ar    1  UNL1        0.0148
     38 C         141.5997  143.9213  158.3884 C.ar    1  UNL1        0.0537
     39 C         138.7780  144.5566  162.6126 C.3     1  UNL1        0.1109
     40 N         139.9436  143.9568  161.8834 N.am    1  UNL1       -0.2991
     41 C         140.4404  144.5869  160.6161 C.2     1  UNL1        0.2471
     42 O         139.7716  145.8170  160.0780 O.2     1  UNL1       -0.2701
     43 H         140.3825  143.1494  162.2367 H       1  UNL1        0.1498
     44 O         139.9350  138.2866  159.1456 O.3     1  UNL1       -0.4705
     45 C         140.9973  138.8873  158.2736 C.3     1  UNL1        0.2525
@<TRIPOS>BOND
     1    39    40    1
     2    40    41   am
     3    41    42    2
     4    41    33    1
     5    33    34   ar
     6    34    35   ar
     7    35    36   ar
     8    36    37   ar
     9    37    38   ar
    10    38    31    1
    11    31    24    1
    12    24    25   ar
    13    25    26   ar
    14    26    22    1
    15    22     1    1
    16     1     2   ar
    17     2     3   ar
    18     3     4   ar
    19     4     5   ar
    20     5     6   ar
    21     6    44    1
    22    44    45    1
    23     5     7    1
    24     7     8    1
    25     8     9    1
    26     9    10    1
    27    10    12    1
    28    12    13    1
    29    13    14    1
    30    14    15    1
    31    15    18    1
    32    18    19    1
    33    19    20    1
    34    15    16    1
    35    16    17    1
    36    10    11    1
    37    26    27   ar
    38    27    28   ar
    39    28    29   ar
    40    29    30    1
    41    38    33   ar
    42    29    24   ar
    43     6     1   ar
    44    17    12    1
    45    11     4    1
    46    40    43    1
    47    31    32    1
    48    22    23    1
    49    20    21    1
@<TRIPOS>MOLECULE
*****
 45 49 0 0 0
SMALL
GASTEIGER

@<TRIPOS>ATOM
      1 C         142.6455  138.5367  159.5708 C.ar    1  UNL1        0.0846
      2 C         143.6624  138.7560  160.6514 C.ar    1  UNL1        0.0174
      3 C         143.2176  138.9644  162.0688 C.ar    1  UNL1       -0.0031
      4 C         141.7559  138.9534  162.4054 C.ar    1  UNL1       -0.0218
      5 C         140.7391  138.7340  161.3248 C.ar    1  UNL1        0.0091
      6 C         141.1838  138.5256  159.9075 C.ar    1  UNL1        0.1477
      7 C         139.2444  138.6863  161.4427 C.3     1  UNL1        0.0292
      8 C         138.3976  138.8462  162.6705 C.3     1  UNL1        0.0062
      9 C         138.8362  139.0933  164.0834 C.3     1  UNL1        0.0166
     10 C         140.2300  139.2415  164.6177 C.3     1  UNL1        0.0619
     11 C         141.5294  139.1793  163.8709 C.3     1  UNL1        0.0421
     12 N         140.3387  139.4841  166.0939 N.3     1  UNL1       -0.2713
     13 C         141.6884  139.5612  166.7439 C.3     1  UNL1        0.0896
     14 C         141.7972  139.8038  168.2202 C.3     1  UNL1        0.0897
     15 N         140.5563  139.9692  169.0465 N.3     1  UNL1       -0.2682
     16 C         139.2066  139.8921  168.3965 C.3     1  UNL1        0.0897
     17 C         139.0978  139.6495  166.9202 C.3     1  UNL1        0.0896
     18 C         140.6650  140.2118  170.5227 C.3     1  UNL1        0.1043
     19 C         141.8632  140.9218  171.0799 C.3     1  UNL1        0.1544
     20 O         143.0441  140.1337  171.5638 O.3     1  UNL1       -0.3805
     21 H         142.7885  139.6124  172.3408 H       1  UNL1        0.2105
     22 N         143.0903  138.3283  158.1535 N.pl3   1  UNL1       -0.2801
     23 H         143.0289  137.4348  157.7446 H       1  UNL1        0.1552
     24 C         144.0116  142.0355  157.0773 C.ar    1  UNL1        0.1472
     25 N         143.4732  140.8825  157.8715 N.ar    1  UNL1       -0.1976
     26 C         143.6287  139.4813  157.3593 C.ar    1  UNL1        0.2220
     27 N         144.3227  139.2331  156.0528 N.ar    1  UNL1       -0.2110
     28 C         144.8611  140.3860  155.2586 C.ar    1  UNL1        0.1160
     29 C         144.7055  141.7872  155.7709 C.ar    1  UNL1        0.1085
     30 CL        145.2440  142.9402  154.9766 Cl      1  UNL1       -0.0777
     31 N         143.8560  143.4367  157.5896 N.pl3   1  UNL1       -0.2970
     32 H         144.5996  143.8723  158.0655 H       1  UNL1        0.1536
     33 C         141.6572  144.4446  158.5380 C.ar    1  UNL1        0.0668
     34 C         140.3685  145.1822  158.3251 C.ar    1  UNL1        0.0058
     35 C         139.9899  145.6493  156.9509 C.ar    1  UNL1        0.0002
     36 C         140.8999  145.3790  155.7896 C.ar    1  UNL1        0.0013
     37 C         142.1886  144.6414  156.0025 C.ar    1  UNL1        0.0148
     38 C         142.5673  144.1742  157.3767 C.ar    1  UNL1        0.0537
     39 C         142.5850  144.5049  162.3962 C.3     1  UNL1        0.1109
     40 N         142.2064  144.9720  161.0220 N.am    1  UNL1       -0.2991
     41 C         142.0357  143.9775  159.9122 C.2     1  UNL1        0.2471
     42 O         142.2437  142.5157  160.1766 O.2     1  UNL1       -0.2701
     43 H         142.0700  145.9315  160.8484 H       1  UNL1        0.1498
     44 O         140.1669  138.3063  158.8269 O.3     1  UNL1       -0.4705
     45 C         139.7604  139.4436  157.9375 C.3     1  UNL1        0.2525
@<TRIPOS>BOND
     1    39    40    1
     2    40    41   am
     3    41    42    2
     4    41    33    1
     5    33    34   ar
     6    34    35   ar
     7    35    36   ar
     8    36    37   ar
     9    37    38   ar
    10    38    31    1
    11    31    24    1
    12    24    25   ar
    13    25    26   ar
    14    26    22    1
    15    22     1    1
    16     1     2   ar
    17     2     3   ar
    18     3     4   ar
    19     4     5   ar
    20     5     6   ar
    21     6    44    1
    22    44    45    1
    23     5     7    1
    24     7     8    1
    25     8     9    1
    26     9    10    1
    27    10    12    1
    28    12    13    1
    29    13    14    1
    30    14    15    1
    31    15    18    1
    32    18    19    1
    33    19    20    1
    34    15    16    1
    35    16    17    1
    36    10    11    1
    37    26    27   ar
    38    27    28   ar
    39    28    29   ar
    40    29    30    1
    41    38    33   ar
    42    29    24   ar
    43     6     1   ar
    44    17    12    1
    45    11     4    1
    46    40    43    1
    47    31    32    1
    48    22    23    1
    49    20    21    1
@<TRIPOS>MOLECULE
*****
 45 49 0 0 0
SMALL
GASTEIGER

@<TRIPOS>ATOM
      1 C         139.2018  141.6211  159.4409 C.ar    1  UNL1        0.0846
      2 C         138.5025  140.2965  159.5215 C.ar    1  UNL1        0.0174
      3 C         139.1225  139.0818  158.8966 C.ar    1  UNL1       -0.0031
      4 C         140.4417  139.1919  158.1912 C.ar    1  UNL1       -0.0218
      5 C         141.1409  140.5164  158.1107 C.ar    1  UNL1        0.0091
      6 C         140.5210  141.7310  158.7355 C.ar    1  UNL1        0.1477
      7 C         142.4522  140.8437  157.4599 C.3     1  UNL1        0.0292
      8 C         143.3881  139.9271  156.7291 C.3     1  UNL1        0.0062
      9 C         143.2438  138.4571  156.4685 C.3     1  UNL1        0.0166
     10 C         142.1281  137.5403  156.8743 C.3     1  UNL1        0.0619
     11 C         140.8810  137.8673  157.6410 C.3     1  UNL1        0.0421
     12 N         142.2794  136.1072  156.4585 N.3     1  UNL1       -0.2713
     13 C         143.4092  135.2837  157.0022 C.3     1  UNL1        0.0896
     14 C         143.5605  133.8504  156.5863 C.3     1  UNL1        0.0897
     15 N         142.5821  133.2406  155.6267 N.3     1  UNL1       -0.2682
     16 C         141.4523  134.0640  155.0830 C.3     1  UNL1        0.0897
     17 C         141.3010  135.4973  155.4989 C.3     1  UNL1        0.0896
     18 C         142.7334  131.8074  155.2109 C.3     1  UNL1        0.1043
     19 C         143.7464  130.9328  155.8884 C.3     1  UNL1        0.1544
     20 O         145.1562  130.8843  155.3786 O.3     1  UNL1       -0.3805
     21 H         145.1663  130.4885  154.4931 H       1  UNL1        0.2105
     22 N         138.5818  142.8356  160.0657 N.pl3   1  UNL1       -0.2801
     23 H         138.0335  143.4444  159.5200 H       1  UNL1        0.1552
     24 C         139.7385  142.4178  163.8391 C.ar    1  UNL1        0.1472
     25 N         139.5230  142.1309  162.3826 N.ar    1  UNL1       -0.1976
     26 C         138.7974  143.1225  161.5222 C.ar    1  UNL1        0.2220
     27 N         138.2873  144.4010  162.1184 N.ar    1  UNL1       -0.2110
     28 C         138.5028  144.6880  163.5747 C.ar    1  UNL1        0.1160
     29 C         139.2284  143.6963  164.4351 C.ar    1  UNL1        0.1085
     30 CL        139.4440  143.9833  165.8916 Cl      1  UNL1       -0.0777
     31 N         140.4642  141.4262  164.6994 N.pl3   1  UNL1       -0.2970
     32 H         141.3527  141.6461  165.0617 H       1  UNL1        0.1536
     33 C         140.3153  138.8620  164.3085 C.ar    1  UNL1        0.0668
     34 C         139.6870  137.5352  164.6168 C.ar    1  UNL1        0.0058
     35 C         138.5792  137.4460  165.6242 C.ar    1  UNL1        0.0002
     36 C         138.0997  138.6834  166.3233 C.ar    1  UNL1        0.0013
     37 C         138.7280  140.0102  166.0150 C.ar    1  UNL1        0.0148
     38 C         139.8358  140.0995  165.0076 C.ar    1  UNL1        0.0537
     39 C         143.9592  138.9260  162.7375 C.3     1  UNL1        0.1109
     40 N         142.8514  138.8367  163.7449 N.am    1  UNL1       -0.2991
     41 C         141.4231  138.9512  163.3012 C.2     1  UNL1        0.2471
     42 O         141.1027  139.1550  161.8500 O.2     1  UNL1       -0.2701
     43 H         143.0617  138.7030  164.6973 H       1  UNL1        0.1498
     44 O         141.2203  143.0556  158.6549 O.3     1  UNL1       -0.4705
     45 C         140.8173  144.0541  157.6106 C.3     1  UNL1        0.2525
@<TRIPOS>BOND
     1    39    40    1
     2    40    41   am
     3    41    42    2
     4    41    33    1
     5    33    34   ar
     6    34    35   ar
     7    35    36   ar
     8    36    37   ar
     9    37    38   ar
    10    38    31    1
    11    31    24    1
    12    24    25   ar
    13    25    26   ar
    14    26    22    1
    15    22     1    1
    16     1     2   ar
    17     2     3   ar
    18     3     4   ar
    19     4     5   ar
    20     5     6   ar
    21     6    44    1
    22    44    45    1
    23     5     7    1
    24     7     8    1
    25     8     9    1
    26     9    10    1
    27    10    12    1
    28    12    13    1
    29    13    14    1
    30    14    15    1
    31    15    18    1
    32    18    19    1
    33    19    20    1
    34    15    16    1
    35    16    17    1
    36    10    11    1
    37    26    27   ar
    38    27    28   ar
    39    28    29   ar
    40    29    30    1
    41    38    33   ar
    42    29    24   ar
    43     6     1   ar
    44    17    12    1
    45    11     4    1
    46    40    43    1
    47    31    32    1
    48    22    23    1
    49    20    21    1
