@<TRIPOS>MOLECULE
*****
 28 32 0 0 0
SMALL
GASTEIGER

@<TRIPOS>ATOM
      1 C         141.1111  140.8727  165.7927 C.3     1  UNL1        0.0581
      2 C         141.8309  139.6570  165.2891 C.3     1  UNL1        0.0163
      3 C         142.1452  139.8722  163.8383 C.3     1  UNL1        0.0058
      4 C         141.6196  141.2210  163.4453 C.3     1  UNL1        0.0240
      5 C         141.0130  142.5860  163.3082 C.3     1  UNL1        0.0301
      6 C         140.9470  143.4623  162.0925 C.ar    1  UNL1       -0.0255
      7 C         140.2497  144.7571  162.3876 C.ar    1  UNL1       -0.0046
      8 C         140.0766  145.7797  161.3039 C.ar    1  UNL1       -0.0003
      9 C         140.6010  145.5074  159.9252 C.ar    1  UNL1       -0.0003
     10 C         141.2983  144.2126  159.6301 C.ar    1  UNL1       -0.0042
     11 C         141.4714  143.1901  160.7138 C.ar    1  UNL1       -0.0217
     12 C         142.1912  141.9742  160.2102 C.3     1  UNL1        0.0520
     13 C         142.5645  140.7304  160.9608 C.ar    1  UNL1       -0.0218
     14 C         143.2808  139.7517  160.0782 C.ar    1  UNL1       -0.0042
     15 C         143.7427  138.4379  160.6353 C.ar    1  UNL1       -0.0003
     16 C         143.4884  138.1027  162.0750 C.ar    1  UNL1       -0.0003
     17 C         142.7721  139.0813  162.9577 C.ar    1  UNL1       -0.0046
     18 C         142.3101  140.3952  162.4006 C.ar    1  UNL1       -0.0261
     19 C         140.9805  141.8394  164.6532 C.3     1  UNL1        0.0203
     20 C         140.5205  142.5179  169.3557 C.2     1  UNL1        0.0036
     21 C         139.6073  141.5086  169.9861 C.2     1  UNL1       -0.0265
     22 C         139.1953  140.2874  169.2188 C.3     1  UNL1        0.0431
     23 C         139.6966  140.0754  167.8210 C.3     1  UNL1        0.0770
     24 N         140.6098  141.0847  167.1905 N.3     1  UNL1       -0.2699
     25 C         141.0218  142.3060  167.9580 C.3     1  UNL1        0.0999
     26 O         142.3095  143.8260  170.7117 O.co2   1  UNL1       -0.5449
     27 C         140.9325  143.7391  170.1232 C.2     1  UNL1        0.0699
     28 O         139.9675  144.8735  170.3020 O.co2   1  UNL1       -0.5449
@<TRIPOS>UNITY_ATOM_ATTR
26 1
charge -1
@<TRIPOS>BOND
     1    26    27   ar
     2    27    28   ar
     3    27    20    1
     4    20    21    2
     5    21    22    1
     6    22    23    1
     7    23    24    1
     8    24     1    1
     9     1     2    1
    10     2     3    1
    11     4     3    1
    12     4     5    1
    13     5     6    1
    14     6     7   ar
    15     7     8   ar
    16     8     9   ar
    17     9    10   ar
    18    10    11   ar
    19    11    12    1
    20    12    13    1
    21    13    14   ar
    22    14    15   ar
    23    15    16   ar
    24    16    17   ar
    25    17    18   ar
    26     4    19    1
    27    24    25    1
    28    25    20    1
    29    19     1    1
    30    18     4    1
    31    11     6   ar
    32    18    13   ar
@<TRIPOS>MOLECULE
*****
 28 32 0 0 0
SMALL
GASTEIGER

@<TRIPOS>ATOM
      1 C         140.2115  140.6836  166.7794 C.3     1  UNL1        0.0581
      2 C         139.7383  139.3918  166.1817 C.3     1  UNL1        0.0163
      3 C         139.4696  139.6261  164.7248 C.3     1  UNL1        0.0058
      4 C         139.7768  141.0627  164.4220 C.3     1  UNL1        0.0240
      5 C         140.1472  142.5156  164.3800 C.3     1  UNL1        0.0301
      6 C         140.1270  143.4526  163.2087 C.ar    1  UNL1       -0.0255
      7 C         140.5757  144.8292  163.6004 C.ar    1  UNL1       -0.0046
      8 C         140.6287  145.9212  162.5734 C.ar    1  UNL1       -0.0003
      9 C         140.2330  145.6366  161.1549 C.ar    1  UNL1       -0.0003
     10 C         139.7842  144.2600  160.7632 C.ar    1  UNL1       -0.0042
     11 C         139.7312  143.1680  161.7902 C.ar    1  UNL1       -0.0217
     12 C         139.2580  141.8761  161.1925 C.3     1  UNL1        0.0520
     13 C         139.0636  140.5498  161.8657 C.ar    1  UNL1       -0.0218
     14 C         138.5735  139.5117  160.9003 C.ar    1  UNL1       -0.0042
     15 C         138.3142  138.1117  161.3721 C.ar    1  UNL1       -0.0003
     16 C         138.5450  137.7497  162.8093 C.ar    1  UNL1       -0.0003
     17 C         139.0352  138.7878  163.7748 C.ar    1  UNL1       -0.0046
     18 C         139.2945  140.1879  163.3030 C.ar    1  UNL1       -0.0261
     19 C         140.2353  141.7163  165.6918 C.3     1  UNL1        0.0203
     20 C         142.1331  142.0170  169.9856 C.2     1  UNL1        0.0036
     21 C         141.3586  141.3448  171.0803 C.2     1  UNL1       -0.0265
     22 C         140.2018  140.4521  170.7413 C.3     1  UNL1        0.0431
     23 C         139.8194  140.2317  169.3077 C.3     1  UNL1        0.0770
     24 N         140.5939  140.9040  168.2130 N.3     1  UNL1       -0.2699
     25 C         141.7508  141.7966  168.5520 C.3     1  UNL1        0.0999
     26 O         144.6608  142.5904  169.8058 O.co2   1  UNL1       -0.5449
     27 C         143.2900  142.9097  170.3246 C.2     1  UNL1        0.0699
     28 O         143.0761  144.1215  171.1823 O.co2   1  UNL1       -0.5449
@<TRIPOS>UNITY_ATOM_ATTR
26 1
charge -1
@<TRIPOS>BOND
     1    26    27   ar
     2    27    28   ar
     3    27    20    1
     4    20    21    2
     5    21    22    1
     6    22    23    1
     7    23    24    1
     8    24     1    1
     9     1     2    1
    10     2     3    1
    11     4     3    1
    12     4     5    1
    13     5     6    1
    14     6     7   ar
    15     7     8   ar
    16     8     9   ar
    17     9    10   ar
    18    10    11   ar
    19    11    12    1
    20    12    13    1
    21    13    14   ar
    22    14    15   ar
    23    15    16   ar
    24    16    17   ar
    25    17    18   ar
    26     4    19    1
    27    24    25    1
    28    25    20    1
    29    19     1    1
    30    18     4    1
    31    11     6   ar
    32    18    13   ar
@<TRIPOS>MOLECULE
*****
 28 32 0 0 0
SMALL
GASTEIGER

@<TRIPOS>ATOM
      1 C         142.0220  139.8646  166.0205 C.3     1  UNL1        0.0581
      2 C         142.6806  138.8402  165.1448 C.3     1  UNL1        0.0163
      3 C         142.6993  139.3723  163.7425 C.3     1  UNL1        0.0058
      4 C         142.0523  140.7255  163.7515 C.3     1  UNL1        0.0240
      5 C         141.3747  142.0357  164.0241 C.3     1  UNL1        0.0301
      6 C         141.0387  143.1336  163.0589 C.ar    1  UNL1       -0.0255
      7 C         140.3585  144.2796  163.7475 C.ar    1  UNL1       -0.0046
      8 C         139.9371  145.4844  162.9597 C.ar    1  UNL1       -0.0003
      9 C         140.1958  145.5434  161.4834 C.ar    1  UNL1       -0.0003
     10 C         140.8760  144.3975  160.7948 C.ar    1  UNL1       -0.0042
     11 C         141.2974  143.1926  161.5826 C.ar    1  UNL1       -0.0217
     12 C         141.9560  142.1681  160.7069 C.3     1  UNL1        0.0520
     13 C         142.5186  140.8318  161.0912 C.ar    1  UNL1       -0.0218
     14 C         143.0906  140.1159  159.9037 C.ar    1  UNL1       -0.0042
     15 C         143.7055  138.7580  160.0711 C.ar    1  UNL1       -0.0003
     16 C         143.7484  138.1160  161.4260 C.ar    1  UNL1       -0.0003
     17 C         143.1763  138.8319  162.6136 C.ar    1  UNL1       -0.0046
     18 C         142.5614  140.1898  162.4462 C.ar    1  UNL1       -0.0261
     19 C         141.6337  141.0298  165.1594 C.3     1  UNL1        0.0203
     20 C         140.2962  140.1529  169.5825 C.2     1  UNL1        0.0036
     21 C         141.3322  139.5052  170.4528 C.2     1  UNL1       -0.0265
     22 C         142.5982  138.9773  169.8455 C.3     1  UNL1        0.0431
     23 C         142.8281  139.0971  168.3681 C.3     1  UNL1        0.0770
     24 N         141.7921  139.7448  167.4979 N.3     1  UNL1       -0.2699
     25 C         140.5261  140.2727  168.1052 C.3     1  UNL1        0.0999
     26 O         138.9579  142.1059  170.6526 O.co2   1  UNL1       -0.5449
     27 C         139.0303  140.6809  170.1899 C.2     1  UNL1        0.0699
     28 O         137.8368  139.7838  170.3344 O.co2   1  UNL1       -0.5449
@<TRIPOS>UNITY_ATOM_ATTR
26 1
charge -1
@<TRIPOS>BOND
     1    26    27   ar
     2    27    28   ar
     3    27    20    1
     4    20    21    2
     5    21    22    1
     6    22    23    1
     7    23    24    1
     8    24     1    1
     9     1     2    1
    10     2     3    1
    11     4     3    1
    12     4     5    1
    13     5     6    1
    14     6     7   ar
    15     7     8   ar
    16     8     9   ar
    17     9    10   ar
    18    10    11   ar
    19    11    12    1
    20    12    13    1
    21    13    14   ar
    22    14    15   ar
    23    15    16   ar
    24    16    17   ar
    25    17    18   ar
    26     4    19    1
    27    24    25    1
    28    25    20    1
    29    19     1    1
    30    18     4    1
    31    11     6   ar
    32    18    13   ar
@<TRIPOS>MOLECULE
*****
 28 32 0 0 0
SMALL
GASTEIGER

@<TRIPOS>ATOM
      1 C         140.1992  142.0876  165.4017 C.3     1  UNL1        0.0581
      2 C         139.8982  143.4639  164.8869 C.3     1  UNL1        0.0163
      3 C         140.2690  143.5068  163.4342 C.3     1  UNL1        0.0058
      4 C         140.7991  142.1569  163.0511 C.3     1  UNL1        0.0240
      5 C         141.2819  140.7424  162.9246 C.3     1  UNL1        0.0301
      6 C         141.8243  140.0440  161.7130 C.ar    1  UNL1       -0.0255
      7 C         142.1946  138.6231  162.0193 C.ar    1  UNL1       -0.0046
      8 C         142.7585  137.7459  160.9411 C.ar    1  UNL1       -0.0003
      9 C         142.9521  138.2897  159.5566 C.ar    1  UNL1       -0.0003
     10 C         142.5819  139.7106  159.2503 C.ar    1  UNL1       -0.0042
     11 C         142.0180  140.5877  160.3285 C.ar    1  UNL1       -0.0217
     12 C         141.7170  141.9641  159.8137 C.3     1  UNL1        0.0520
     13 C         141.1480  143.1367  160.5562 C.ar    1  UNL1       -0.0218
     14 C         141.0042  144.3334  159.6634 C.ar    1  UNL1       -0.0042
     15 C         140.4518  145.6159  160.2113 C.ar    1  UNL1       -0.0003
     16 C         140.0434  145.7017  161.6520 C.ar    1  UNL1       -0.0003
     17 C         140.1872  144.5049  162.5449 C.ar    1  UNL1       -0.0046
     18 C         140.7396  143.2225  161.9970 C.ar    1  UNL1       -0.0261
     19 C         140.7560  141.2797  164.2671 C.3     1  UNL1        0.0203
     20 C         140.1463  141.9898  169.3688 C.2     1  UNL1        0.0036
     21 C         139.5463  140.6366  169.6111 C.2     1  UNL1       -0.0265
     22 C         139.1638  139.7670  168.4502 C.3     1  UNL1        0.0431
     23 C         139.3815  140.2506  167.0471 C.3     1  UNL1        0.0770
     24 N         139.9815  141.6039  166.8048 N.3     1  UNL1       -0.2699
     25 C         140.3639  142.4735  167.9658 C.3     1  UNL1        0.0999
     26 O         140.5158  142.3005  171.9217 O.co2   1  UNL1       -0.5449
     27 C         140.5287  142.8594  170.5297 C.2     1  UNL1        0.0699
     28 O         140.9240  144.2879  170.2987 O.co2   1  UNL1       -0.5449
@<TRIPOS>UNITY_ATOM_ATTR
26 1
charge -1
@<TRIPOS>BOND
     1    26    27   ar
     2    27    28   ar
     3    27    20    1
     4    20    21    2
     5    21    22    1
     6    22    23    1
     7    23    24    1
     8    24     1    1
     9     1     2    1
    10     2     3    1
    11     4     3    1
    12     4     5    1
    13     5     6    1
    14     6     7   ar
    15     7     8   ar
    16     8     9   ar
    17     9    10   ar
    18    10    11   ar
    19    11    12    1
    20    12    13    1
    21    13    14   ar
    22    14    15   ar
    23    15    16   ar
    24    16    17   ar
    25    17    18   ar
    26     4    19    1
    27    24    25    1
    28    25    20    1
    29    19     1    1
    30    18     4    1
    31    11     6   ar
    32    18    13   ar
@<TRIPOS>MOLECULE
*****
 28 32 0 0 0
SMALL
GASTEIGER

@<TRIPOS>ATOM
      1 C         139.4206  139.7783  161.6703 C.3     1  UNL1        0.0581
      2 C         138.4929  139.1581  162.6725 C.3     1  UNL1        0.0163
      3 C         138.9772  139.5273  164.0432 C.3     1  UNL1        0.0058
      4 C         140.2044  140.3759  163.8881 C.3     1  UNL1        0.0240
      5 C         141.3921  141.1906  163.4693 C.3     1  UNL1        0.0301
      6 C         142.3891  141.9038  164.3339 C.ar    1  UNL1       -0.0255
      7 C         143.4274  142.6050  163.5092 C.ar    1  UNL1       -0.0046
      8 C         144.5210  143.3807  164.1816 C.ar    1  UNL1       -0.0003
      9 C         144.5764  143.4551  165.6787 C.ar    1  UNL1       -0.0003
     10 C         143.5382  142.7539  166.5034 C.ar    1  UNL1       -0.0042
     11 C         142.4445  141.9782  165.8310 C.ar    1  UNL1       -0.0217
     12 C         141.5166  141.3579  166.8332 C.3     1  UNL1        0.0520
     13 C         140.3043  140.5100  166.5859 C.ar    1  UNL1       -0.0218
     14 C         139.6566  140.0912  167.8724 C.ar    1  UNL1       -0.0042
     15 C         138.4250  139.2353  167.8482 C.ar    1  UNL1       -0.0003
     16 C         137.8410  138.7983  166.5376 C.ar    1  UNL1       -0.0003
     17 C         138.4887  139.2171  165.2510 C.ar    1  UNL1       -0.0046
     18 C         139.7203  140.0730  165.2752 C.ar    1  UNL1       -0.0261
     19 C         140.4785  140.5310  162.4216 C.3     1  UNL1        0.0203
     20 C         138.1709  140.3570  157.9483 C.2     1  UNL1        0.0036
     21 C         139.0889  139.4404  157.1952 C.2     1  UNL1       -0.0265
     22 C         140.1175  138.6364  157.9338 C.3     1  UNL1        0.0431
     23 C         140.2281  138.7490  159.4255 C.3     1  UNL1        0.0770
     24 N         139.3101  139.6656  160.1786 N.3     1  UNL1       -0.2699
     25 C         138.2815  140.4697  159.4399 C.3     1  UNL1        0.0999
     26 O         137.3888  142.6128  156.9234 O.co2   1  UNL1       -0.5449
     27 C         137.1423  141.1611  157.2096 C.2     1  UNL1        0.0699
     28 O         135.8672  140.5134  156.7570 O.co2   1  UNL1       -0.5449
@<TRIPOS>UNITY_ATOM_ATTR
26 1
charge -1
@<TRIPOS>BOND
     1    26    27   ar
     2    27    28   ar
     3    27    20    1
     4    20    21    2
     5    21    22    1
     6    22    23    1
     7    23    24    1
     8    24     1    1
     9     1     2    1
    10     2     3    1
    11     4     3    1
    12     4     5    1
    13     5     6    1
    14     6     7   ar
    15     7     8   ar
    16     8     9   ar
    17     9    10   ar
    18    10    11   ar
    19    11    12    1
    20    12    13    1
    21    13    14   ar
    22    14    15   ar
    23    15    16   ar
    24    16    17   ar
    25    17    18   ar
    26     4    19    1
    27    24    25    1
    28    25    20    1
    29    19     1    1
    30    18     4    1
    31    11     6   ar
    32    18    13   ar
@<TRIPOS>MOLECULE
*****
 28 32 0 0 0
SMALL
GASTEIGER

@<TRIPOS>ATOM
      1 C         142.8002  139.5225  161.2844 C.3     1  UNL1        0.0581
      2 C         143.3932  138.6636  162.3616 C.3     1  UNL1        0.0163
      3 C         142.9545  139.2129  163.6866 C.3     1  UNL1        0.0058
      4 C         142.0903  140.4114  163.4283 C.3     1  UNL1        0.0240
      5 C         141.2722  141.5571  162.9104 C.3     1  UNL1        0.0301
      6 C         140.5026  142.5835  163.6877 C.ar    1  UNL1       -0.0255
      7 C         139.8187  143.5605  162.7780 C.ar    1  UNL1       -0.0046
      8 C         138.9932  144.6718  163.3555 C.ar    1  UNL1       -0.0003
      9 C         138.8517  144.8061  164.8427 C.ar    1  UNL1       -0.0003
     10 C         139.5355  143.8291  165.7525 C.ar    1  UNL1       -0.0042
     11 C         140.3610  142.7178  165.1750 C.ar    1  UNL1       -0.0217
     12 C         140.9541  141.8588  166.2522 C.3     1  UNL1        0.0520
     13 C         141.8352  140.6534  166.1083 C.ar    1  UNL1       -0.0218
     14 C         142.2091  140.0851  167.4451 C.ar    1  UNL1       -0.0042
     15 C         143.0887  138.8727  167.5253 C.ar    1  UNL1       -0.0003
     16 C         143.5943  138.2286  166.2686 C.ar    1  UNL1       -0.0003
     17 C         143.2204  138.7969  164.9316 C.ar    1  UNL1       -0.0046
     18 C         142.3408  140.0093  164.8515 C.ar    1  UNL1       -0.0261
     19 C         141.9949  140.6028  161.9436 C.3     1  UNL1        0.0203
     20 C         142.7462  137.8586  157.6819 C.2     1  UNL1        0.0036
     21 C         143.3417  138.9578  156.8530 C.2     1  UNL1       -0.0265
     22 C         143.7567  140.2453  157.5012 C.3     1  UNL1        0.0431
     23 C         143.5762  140.4335  158.9783 C.3     1  UNL1        0.0770
     24 N         142.9807  139.3343  159.8073 N.3     1  UNL1       -0.2699
     25 C         142.5657  138.0468  159.1590 C.3     1  UNL1        0.0999
     26 O         143.1919  135.3503  157.1718 O.co2   1  UNL1       -0.5449
     27 C         142.3312  136.5710  157.0336 C.2     1  UNL1        0.0699
     28 O         141.0557  136.5043  156.2472 O.co2   1  UNL1       -0.5449
@<TRIPOS>UNITY_ATOM_ATTR
26 1
charge -1
@<TRIPOS>BOND
     1    26    27   ar
     2    27    28   ar
     3    27    20    1
     4    20    21    2
     5    21    22    1
     6    22    23    1
     7    23    24    1
     8    24     1    1
     9     1     2    1
    10     2     3    1
    11     4     3    1
    12     4     5    1
    13     5     6    1
    14     6     7   ar
    15     7     8   ar
    16     8     9   ar
    17     9    10   ar
    18    10    11   ar
    19    11    12    1
    20    12    13    1
    21    13    14   ar
    22    14    15   ar
    23    15    16   ar
    24    16    17   ar
    25    17    18   ar
    26     4    19    1
    27    24    25    1
    28    25    20    1
    29    19     1    1
    30    18     4    1
    31    11     6   ar
    32    18    13   ar
@<TRIPOS>MOLECULE
*****
 28 32 0 0 0
SMALL
GASTEIGER

@<TRIPOS>ATOM
      1 C         141.9677  139.3560  160.6019 C.3     1  UNL1        0.0581
      2 C         143.1176  140.3016  160.7845 C.3     1  UNL1        0.0163
      3 C         143.0952  140.7904  162.2024 C.3     1  UNL1        0.0058
      4 C         141.9313  140.1468  162.8961 C.3     1  UNL1        0.0240
      5 C         140.7229  139.3846  163.3528 C.3     1  UNL1        0.0301
      6 C         140.0796  139.3757  164.7079 C.ar    1  UNL1       -0.0255
      7 C         138.8833  138.4715  164.7407 C.ar    1  UNL1       -0.0046
      8 C         138.0934  138.3184  166.0066 C.ar    1  UNL1       -0.0003
      9 C         138.4998  139.0696  167.2397 C.ar    1  UNL1       -0.0003
     10 C         139.6961  139.9738  167.2069 C.ar    1  UNL1       -0.0042
     11 C         140.4861  140.1268  165.9410 C.ar    1  UNL1       -0.0217
     12 C         141.6361  141.0724  166.1235 C.3     1  UNL1        0.0520
     13 C         142.6637  141.5004  165.1182 C.ar    1  UNL1       -0.0218
     14 C         143.6455  142.4649  165.7146 C.ar    1  UNL1       -0.0042
     15 C         144.7588  143.0175  164.8747 C.ar    1  UNL1       -0.0003
     16 C         144.8901  142.6056  163.4384 C.ar    1  UNL1       -0.0003
     17 C         143.9083  141.6411  162.8419 C.ar    1  UNL1       -0.0046
     18 C         142.7951  141.0885  163.6818 C.ar    1  UNL1       -0.0261
     19 C         141.2344  139.2604  161.9070 C.3     1  UNL1        0.0203
     20 C         142.3175  137.1715  157.3071 C.2     1  UNL1        0.0036
     21 C         140.9039  137.1870  156.8053 C.2     1  UNL1       -0.0265
     22 C         139.8450  137.9255  157.5690 C.3     1  UNL1        0.0431
     23 C         140.1996  138.6485  158.8345 C.3     1  UNL1        0.0770
     24 N         141.6131  138.6330  159.3364 N.3     1  UNL1       -0.2699
     25 C         142.6720  137.8944  158.5726 C.3     1  UNL1        0.0999
     26 O         143.3763  134.9331  156.5206 O.co2   1  UNL1       -0.5449
     27 C         143.3764  136.4329  156.5434 C.2     1  UNL1        0.0699
     28 O         144.4354  137.1942  155.8024 O.co2   1  UNL1       -0.5449
@<TRIPOS>UNITY_ATOM_ATTR
26 1
charge -1
@<TRIPOS>BOND
     1    26    27   ar
     2    27    28   ar
     3    27    20    1
     4    20    21    2
     5    21    22    1
     6    22    23    1
     7    23    24    1
     8    24     1    1
     9     1     2    1
    10     2     3    1
    11     4     3    1
    12     4     5    1
    13     5     6    1
    14     6     7   ar
    15     7     8   ar
    16     8     9   ar
    17     9    10   ar
    18    10    11   ar
    19    11    12    1
    20    12    13    1
    21    13    14   ar
    22    14    15   ar
    23    15    16   ar
    24    16    17   ar
    25    17    18   ar
    26     4    19    1
    27    24    25    1
    28    25    20    1
    29    19     1    1
    30    18     4    1
    31    11     6   ar
    32    18    13   ar
@<TRIPOS>MOLECULE
*****
 28 32 0 0 0
SMALL
GASTEIGER

@<TRIPOS>ATOM
      1 C         140.5004  139.6598  159.6415 C.3     1  UNL1        0.0581
      2 C         140.4905  141.1525  159.4955 C.3     1  UNL1        0.0163
      3 C         139.9918  141.7408  160.7820 C.3     1  UNL1        0.0058
      4 C         139.6934  140.6115  161.7231 C.3     1  UNL1        0.0240
      5 C         139.4762  139.3245  162.4622 C.3     1  UNL1        0.0301
      6 C         138.9702  139.1224  163.8598 C.ar    1  UNL1       -0.0255
      7 C         138.9023  137.6661  164.2128 C.ar    1  UNL1       -0.0046
      8 C         138.4208  137.2450  165.5695 C.ar    1  UNL1       -0.0003
      9 C         138.0071  138.2801  166.5732 C.ar    1  UNL1       -0.0003
     10 C         138.0751  139.7364  166.2202 C.ar    1  UNL1       -0.0042
     11 C         138.5566  140.1575  164.8635 C.ar    1  UNL1       -0.0217
     12 C         138.5468  141.6504  164.7175 C.3     1  UNL1        0.0520
     13 C         138.9481  142.4768  163.5318 C.ar    1  UNL1       -0.0218
     14 C         138.7851  143.9427  163.8049 C.ar    1  UNL1       -0.0042
     15 C         139.1324  144.9462  162.7456 C.ar    1  UNL1       -0.0003
     16 C         139.6426  144.4839  161.4130 C.ar    1  UNL1       -0.0003
     17 C         139.8057  143.0180  161.1398 C.ar    1  UNL1       -0.0046
     18 C         139.4584  142.0145  162.1991 C.ar    1  UNL1       -0.0261
     19 C         140.0077  139.3253  161.0182 C.3     1  UNL1        0.0203
     20 C         140.4082  137.3020  156.4505 C.2     1  UNL1        0.0036
     21 C         141.7827  136.7034  156.5005 C.2     1  UNL1       -0.0265
     22 C         142.7297  137.0902  157.5975 C.3     1  UNL1        0.0431
     23 C         142.3023  138.0757  158.6445 C.3     1  UNL1        0.0770
     24 N         140.9278  138.6743  158.5945 N.3     1  UNL1       -0.2699
     25 C         139.9808  138.2874  157.4974 C.3     1  UNL1        0.0999
     26 O         137.9899  137.1610  155.5113 O.co2   1  UNL1       -0.5449
     27 C         139.4612  136.9151  155.3534 C.2     1  UNL1        0.0699
     28 O         139.9854  136.2823  154.0985 O.co2   1  UNL1       -0.5449
@<TRIPOS>UNITY_ATOM_ATTR
26 1
charge -1
@<TRIPOS>BOND
     1    26    27   ar
     2    27    28   ar
     3    27    20    1
     4    20    21    2
     5    21    22    1
     6    22    23    1
     7    23    24    1
     8    24     1    1
     9     1     2    1
    10     2     3    1
    11     4     3    1
    12     4     5    1
    13     5     6    1
    14     6     7   ar
    15     7     8   ar
    16     8     9   ar
    17     9    10   ar
    18    10    11   ar
    19    11    12    1
    20    12    13    1
    21    13    14   ar
    22    14    15   ar
    23    15    16   ar
    24    16    17   ar
    25    17    18   ar
    26     4    19    1
    27    24    25    1
    28    25    20    1
    29    19     1    1
    30    18     4    1
    31    11     6   ar
    32    18    13   ar
@<TRIPOS>MOLECULE
*****
 28 32 0 0 0
SMALL
GASTEIGER

@<TRIPOS>ATOM
      1 C         142.3949  141.5823  166.3650 C.3     1  UNL1        0.0581
      2 C         143.4852  142.3280  165.6542 C.3     1  UNL1        0.0163
      3 C         143.3630  142.0407  164.1872 C.3     1  UNL1        0.0058
      4 C         142.1972  141.1174  163.9912 C.3     1  UNL1        0.0240
      5 C         141.0054  140.2093  164.0624 C.3     1  UNL1        0.0301
      6 C         140.2921  139.5126  162.9417 C.ar    1  UNL1       -0.0255
      7 C         139.1421  138.6940  163.4491 C.ar    1  UNL1       -0.0046
      8 C         138.2944  137.9149  162.4877 C.ar    1  UNL1       -0.0003
      9 C         138.5967  137.9542  161.0190 C.ar    1  UNL1       -0.0003
     10 C         139.7467  138.7727  160.5117 C.ar    1  UNL1       -0.0042
     11 C         140.5944  139.5519  161.4730 C.ar    1  UNL1       -0.0217
     12 C         141.6847  140.2977  160.7623 C.3     1  UNL1        0.0520
     13 C         142.7419  141.1883  161.3446 C.ar    1  UNL1       -0.0218
     14 C         143.6415  141.7404  160.2788 C.ar    1  UNL1       -0.0042
     15 C         144.7691  142.6574  160.6500 C.ar    1  UNL1       -0.0003
     16 C         144.9971  143.0222  162.0869 C.ar    1  UNL1       -0.0003
     17 C         144.0976  142.4700  163.1528 C.ar    1  UNL1       -0.0046
     18 C         142.9700  141.5531  162.7816 C.ar    1  UNL1       -0.0261
     19 C         141.5989  140.8340  165.3372 C.3     1  UNL1        0.0203
     20 C         140.9407  142.5779  169.9208 C.2     1  UNL1        0.0036
     21 C         141.6441  141.5885  170.8019 C.2     1  UNL1       -0.0265
     22 C         142.5979  140.5971  170.2041 C.3     1  UNL1        0.0431
     23 C         142.8481  140.5950  168.7251 C.3     1  UNL1        0.0770
     24 N         142.1447  141.5844  167.8440 N.3     1  UNL1       -0.2699
     25 C         141.1909  142.5758  168.4419 C.3     1  UNL1        0.0999
     26 O         140.1899  145.0378  170.2890 O.co2   1  UNL1       -0.5449
     27 C         139.9870  143.5694  170.5187 C.2     1  UNL1        0.0699
     28 O         138.8304  143.0925  171.3464 O.co2   1  UNL1       -0.5449
@<TRIPOS>UNITY_ATOM_ATTR
26 1
charge -1
@<TRIPOS>BOND
     1    26    27   ar
     2    27    28   ar
     3    27    20    1
     4    20    21    2
     5    21    22    1
     6    22    23    1
     7    23    24    1
     8    24     1    1
     9     1     2    1
    10     2     3    1
    11     4     3    1
    12     4     5    1
    13     5     6    1
    14     6     7   ar
    15     7     8   ar
    16     8     9   ar
    17     9    10   ar
    18    10    11   ar
    19    11    12    1
    20    12    13    1
    21    13    14   ar
    22    14    15   ar
    23    15    16   ar
    24    16    17   ar
    25    17    18   ar
    26     4    19    1
    27    24    25    1
    28    25    20    1
    29    19     1    1
    30    18     4    1
    31    11     6   ar
    32    18    13   ar
