@<TRIPOS>MOLECULE
*****
 22 23 0 0 0
SMALL
GASTEIGER

@<TRIPOS>ATOM
      1 C         140.4848  141.1418  167.4058 C.3     1  UNL1        0.0896
      2 C         139.7384  140.1971  168.3004 C.3     1  UNL1        0.0106
      3 C         139.3429  140.6270  169.6820 C.3     1  UNL1        0.0005
      4 C         139.6939  142.0017  170.1690 C.3     1  UNL1        0.0000
      5 C         140.4403  142.9464  169.2744 C.3     1  UNL1        0.0005
      6 C         140.8358  142.5165  167.8928 C.3     1  UNL1        0.0106
      7 C         140.3805  139.9517  166.4987 C.3     1  UNL1        0.0100
      8 C         139.0329  139.4499  166.0719 C.3     1  UNL1        0.0005
      9 C         138.9287  138.2598  165.1648 C.3     1  UNL1        0.0000
     10 C         140.1720  137.5716  164.6845 C.3     1  UNL1        0.0000
     11 C         141.5195  138.0735  165.1113 C.3     1  UNL1        0.0000
     12 C         141.6238  139.2636  166.0184 C.3     1  UNL1        0.0005
     13 C         141.1950  141.6733  166.1961 C.2     1  UNL1        0.3159
     14 O         142.6310  142.0954  166.2947 O.2     1  UNL1       -0.2501
     15 O         140.4692  141.7827  164.8880 O.3     1  UNL1       -0.4470
     16 C         141.1819  142.3061  163.6763 C.3     1  UNL1        0.2257
     17 C         140.4382  143.1279  162.6656 C.3     1  UNL1        0.1201
     18 N         139.0583  143.6282  162.9747 N.3     1  UNL1       -0.2696
     19 C         138.7160  144.7613  165.2875 C.3     1  UNL1        0.0188
     20 C         138.8772  144.8676  163.8000 C.3     1  UNL1        0.0722
     21 C         137.8595  142.8891  162.4585 C.3     1  UNL1        0.0722
     22 C         137.3602  141.6726  163.1804 C.3     1  UNL1        0.0188
@<TRIPOS>BOND
     1    19    20    1
     2    20    18    1
     3    18    21    1
     4    21    22    1
     5    18    17    1
     6    17    16    1
     7    16    15    1
     8    15    13    1
     9    13    14    2
    10    13     1    1
    11     1     7    1
    12     7     8    1
    13     8     9    1
    14     9    10    1
    15    10    11    1
    16    11    12    1
    17     1     2    1
    18     2     3    1
    19     3     4    1
    20     4     5    1
    21     5     6    1
    22     6     1    1
    23    12     7    1
@<TRIPOS>MOLECULE
*****
 22 23 0 0 0
SMALL
GASTEIGER

@<TRIPOS>ATOM
      1 C         141.8885  142.2000  166.9516 C.3     1  UNL1        0.0896
      2 C         142.9760  141.8900  167.9370 C.3     1  UNL1        0.0106
      3 C         142.8059  142.2565  169.3816 C.3     1  UNL1        0.0005
      4 C         141.5483  142.9330  169.8407 C.3     1  UNL1        0.0000
      5 C         140.4608  143.2430  168.8552 C.3     1  UNL1        0.0005
      6 C         140.6308  142.8765  167.4107 C.3     1  UNL1        0.0106
      7 C         142.8891  141.5531  166.0403 C.3     1  UNL1        0.0100
      8 C         143.0003  140.0581  165.9891 C.3     1  UNL1        0.0005
      9 C         144.0009  139.4113  165.0778 C.3     1  UNL1        0.0000
     10 C         144.8903  140.2595  164.2178 C.3     1  UNL1        0.0000
     11 C         144.7791  141.7545  164.2691 C.3     1  UNL1        0.0000
     12 C         143.7785  142.4013  165.1803 C.3     1  UNL1        0.0005
     13 C         141.1484  142.2853  165.6496 C.2     1  UNL1        0.3159
     14 O         140.9765  143.6115  164.9702 O.2     1  UNL1       -0.2501
     15 O         140.5804  141.0445  165.0271 O.3     1  UNL1       -0.4470
     16 C         139.3152  141.1196  164.2248 C.3     1  UNL1        0.2257
     17 C         138.2222  140.1178  164.4525 C.3     1  UNL1        0.1201
     18 N         138.4652  138.9308  165.3368 N.3     1  UNL1       -0.2696
     19 C         140.5251  137.4743  164.7159 C.3     1  UNL1        0.0188
     20 C         139.0386  137.6706  164.7597 C.3     1  UNL1        0.0722
     21 C         138.1347  139.0040  166.7981 C.3     1  UNL1        0.0722
     22 C         139.0973  139.6447  167.7535 C.3     1  UNL1        0.0188
@<TRIPOS>BOND
     1    19    20    1
     2    20    18    1
     3    18    21    1
     4    21    22    1
     5    18    17    1
     6    17    16    1
     7    16    15    1
     8    15    13    1
     9    13    14    2
    10    13     1    1
    11     1     7    1
    12     7     8    1
    13     8     9    1
    14     9    10    1
    15    10    11    1
    16    11    12    1
    17     1     2    1
    18     2     3    1
    19     3     4    1
    20     4     5    1
    21     5     6    1
    22     6     1    1
    23    12     7    1
@<TRIPOS>MOLECULE
*****
 22 23 0 0 0
SMALL
GASTEIGER

@<TRIPOS>ATOM
      1 C         140.0146  141.4165  166.8202 C.3     1  UNL1        0.0896
      2 C         139.7028  140.3734  167.8519 C.3     1  UNL1        0.0106
      3 C         138.7492  139.2613  167.5297 C.3     1  UNL1        0.0005
      4 C         138.1074  139.1924  166.1756 C.3     1  UNL1        0.0000
      5 C         138.4192  140.2355  165.1439 C.3     1  UNL1        0.0005
      6 C         139.3728  141.3476  165.4661 C.3     1  UNL1        0.0106
      7 C         140.8677  141.9069  167.9525 C.3     1  UNL1        0.0100
      8 C         140.4130  143.0684  168.7855 C.3     1  UNL1        0.0005
      9 C         141.2660  143.5587  169.9177 C.3     1  UNL1        0.0000
     10 C         142.5737  142.8875  170.2169 C.3     1  UNL1        0.0000
     11 C         143.0283  141.7260  169.3838 C.3     1  UNL1        0.0000
     12 C         142.1753  141.2357  168.2516 C.3     1  UNL1        0.0005
     13 C         140.6227  142.6300  166.1816 C.2     1  UNL1        0.3159
     14 O         139.7528  143.7887  165.7933 O.2     1  UNL1       -0.2501
     15 O         142.1007  142.6848  165.9314 O.3     1  UNL1       -0.4470
     16 C         142.6180  143.0363  164.5680 C.3     1  UNL1        0.2257
     17 C         142.7844  141.9661  163.5302 C.3     1  UNL1        0.1201
     18 N         143.3053  140.6153  163.9227 N.3     1  UNL1       -0.2696
     19 C         142.4062  138.7994  165.5488 C.3     1  UNL1        0.0188
     20 C         142.3477  139.5008  164.2241 C.3     1  UNL1        0.0722
     21 C         144.7837  140.3791  164.0137 C.3     1  UNL1        0.0722
     22 C         145.7408  141.5009  163.7387 C.3     1  UNL1        0.0188
@<TRIPOS>BOND
     1    19    20    1
     2    20    18    1
     3    18    21    1
     4    21    22    1
     5    18    17    1
     6    17    16    1
     7    16    15    1
     8    15    13    1
     9    13    14    2
    10    13     1    1
    11     1     7    1
    12     7     8    1
    13     8     9    1
    14     9    10    1
    15    10    11    1
    16    11    12    1
    17     1     2    1
    18     2     3    1
    19     3     4    1
    20     4     5    1
    21     5     6    1
    22     6     1    1
    23    12     7    1
@<TRIPOS>MOLECULE
*****
 22 23 0 0 0
SMALL
GASTEIGER

@<TRIPOS>ATOM
      1 C         140.6848  139.7377  166.6468 C.3     1  UNL1        0.0896
      2 C         142.0165  139.7377  167.3371 C.3     1  UNL1        0.0106
      3 C         143.1472  138.9209  166.7856 C.3     1  UNL1        0.0005
      4 C         142.9462  138.1040  165.5436 C.3     1  UNL1        0.0000
      5 C         141.6146  138.1040  164.8533 C.3     1  UNL1        0.0005
      6 C         140.4839  138.9208  165.4048 C.3     1  UNL1        0.0106
      7 C         140.3874  140.6666  167.7864 C.3     1  UNL1        0.0100
      8 C         139.6211  140.1716  168.9771 C.3     1  UNL1        0.0005
      9 C         139.3237  141.1005  170.1167 C.3     1  UNL1        0.0000
     10 C         139.7926  142.5245  170.0655 C.3     1  UNL1        0.0000
     11 C         140.5589  143.0195  168.8749 C.3     1  UNL1        0.0000
     12 C         140.8563  142.0906  167.7353 C.3     1  UNL1        0.0005
     13 C         139.2498  140.0603  166.3522 C.2     1  UNL1        0.3159
     14 O         138.1793  139.0505  166.6423 O.2     1  UNL1       -0.2501
     15 O         138.8854  141.3927  165.7675 O.3     1  UNL1       -0.4470
     16 C         138.1546  141.4631  164.4594 C.3     1  UNL1        0.2257
     17 C         138.7345  142.2441  163.3176 C.3     1  UNL1        0.1201
     18 N         139.6329  143.4142  163.5889 N.3     1  UNL1       -0.2696
     19 C         138.7194  144.9093  165.5073 C.3     1  UNL1        0.0188
     20 C         139.0502  144.7146  164.0572 C.3     1  UNL1        0.0722
     21 C         141.1142  143.2839  163.3920 C.3     1  UNL1        0.0722
     22 C         141.9023  142.3292  164.2392 C.3     1  UNL1        0.0188
@<TRIPOS>BOND
     1    19    20    1
     2    20    18    1
     3    18    21    1
     4    21    22    1
     5    18    17    1
     6    17    16    1
     7    16    15    1
     8    15    13    1
     9    13    14    2
    10    13     1    1
    11     1     7    1
    12     7     8    1
    13     8     9    1
    14     9    10    1
    15    10    11    1
    16    11    12    1
    17     1     2    1
    18     2     3    1
    19     3     4    1
    20     4     5    1
    21     5     6    1
    22     6     1    1
    23    12     7    1
@<TRIPOS>MOLECULE
*****
 22 23 0 0 0
SMALL
GASTEIGER

@<TRIPOS>ATOM
      1 C         139.3594  142.0530  165.3874 C.3     1  UNL1        0.0896
      2 C         138.4306  141.8062  164.2357 C.3     1  UNL1        0.0106
      3 C         137.7127  142.9550  163.5917 C.3     1  UNL1        0.0005
      4 C         137.9237  144.3507  164.0993 C.3     1  UNL1        0.0000
      5 C         138.8525  144.5975  165.2509 C.3     1  UNL1        0.0005
      6 C         139.5704  143.4487  165.8950 C.3     1  UNL1        0.0106
      7 C         139.4864  140.5634  165.2650 C.3     1  UNL1        0.0100
      8 C         140.7377  139.9614  164.6978 C.3     1  UNL1        0.0005
      9 C         140.8646  138.4718  164.5755 C.3     1  UNL1        0.0000
     10 C         139.7402  137.5842  165.0203 C.3     1  UNL1        0.0000
     11 C         138.4889  138.1862  165.5875 C.3     1  UNL1        0.0000
     12 C         138.3620  139.6758  165.7098 C.3     1  UNL1        0.0005
     13 C         140.3324  141.7825  166.4966 C.2     1  UNL1        0.3159
     14 O         139.9370  140.8985  167.6420 O.2     1  UNL1       -0.2501
     15 O         141.7006  142.3960  166.4603 O.3     1  UNL1       -0.4470
     16 C         142.8167  141.7878  167.2569 C.3     1  UNL1        0.2257
     17 C         143.1409  142.3201  168.6212 C.3     1  UNL1        0.1201
     18 N         142.4654  141.7448  169.8307 N.3     1  UNL1       -0.2696
     19 C         140.6353  143.5876  169.7641 C.3     1  UNL1        0.0188
     20 C         141.3603  142.5029  170.5043 C.3     1  UNL1        0.0722
     21 C         142.8951  140.4112  170.3665 C.3     1  UNL1        0.0722
     22 C         142.2426  139.1565  169.8665 C.3     1  UNL1        0.0188
@<TRIPOS>BOND
     1    19    20    1
     2    20    18    1
     3    18    21    1
     4    21    22    1
     5    18    17    1
     6    17    16    1
     7    16    15    1
     8    15    13    1
     9    13    14    2
    10    13     1    1
    11     1     7    1
    12     7     8    1
    13     8     9    1
    14     9    10    1
    15    10    11    1
    16    11    12    1
    17     1     2    1
    18     2     3    1
    19     3     4    1
    20     4     5    1
    21     5     6    1
    22     6     1    1
    23    12     7    1
@<TRIPOS>MOLECULE
*****
 22 23 0 0 0
SMALL
GASTEIGER

@<TRIPOS>ATOM
      1 C         140.3735  141.1620  167.2060 C.3     1  UNL1        0.0896
      2 C         139.8276  140.2098  168.2283 C.3     1  UNL1        0.0106
      3 C         139.5622  140.6822  169.6270 C.3     1  UNL1        0.0005
      4 C         139.8426  142.1069  170.0033 C.3     1  UNL1        0.0000
      5 C         140.3885  143.0592  168.9810 C.3     1  UNL1        0.0005
      6 C         140.6539  142.5868  167.5823 C.3     1  UNL1        0.0106
      7 C         140.2702  139.9180  166.3742 C.3     1  UNL1        0.0100
      8 C         141.5136  139.2479  165.8694 C.3     1  UNL1        0.0005
      9 C         141.4102  138.0039  165.0377 C.3     1  UNL1        0.0000
     10 C         140.0635  137.4300  164.7108 C.3     1  UNL1        0.0000
     11 C         138.8200  138.1001  165.2156 C.3     1  UNL1        0.0000
     12 C         138.9234  139.3441  166.0473 C.3     1  UNL1        0.0005
     13 C         140.8835  141.6823  165.8947 C.2     1  UNL1        0.3159
     14 O         142.2894  142.1936  165.7865 O.2     1  UNL1       -0.2501
     15 O         139.9875  141.6911  164.6918 O.3     1  UNL1       -0.4470
     16 C         140.5763  141.8298  163.3191 C.3     1  UNL1        0.2257
     17 C         140.6178  143.1732  162.6531 C.3     1  UNL1        0.1201
     18 N         140.4543  144.4206  163.4700 N.3     1  UNL1       -0.2696
     19 C         143.0197  144.8205  163.3765 C.3     1  UNL1        0.0188
     20 C         141.6594  145.2217  163.8650 C.3     1  UNL1        0.0722
     21 C         139.0858  144.8668  163.8920 C.3     1  UNL1        0.0722
     22 C         138.7215  144.8948  165.3468 C.3     1  UNL1        0.0188
@<TRIPOS>BOND
     1    19    20    1
     2    20    18    1
     3    18    21    1
     4    21    22    1
     5    18    17    1
     6    17    16    1
     7    16    15    1
     8    15    13    1
     9    13    14    2
    10    13     1    1
    11     1     7    1
    12     7     8    1
    13     8     9    1
    14     9    10    1
    15    10    11    1
    16    11    12    1
    17     1     2    1
    18     2     3    1
    19     3     4    1
    20     4     5    1
    21     5     6    1
    22     6     1    1
    23    12     7    1
@<TRIPOS>MOLECULE
*****
 22 23 0 0 0
SMALL
GASTEIGER

@<TRIPOS>ATOM
      1 C         141.6796  141.5370  167.8484 C.3     1  UNL1        0.0896
      2 C         143.0334  141.7219  168.4671 C.3     1  UNL1        0.0106
      3 C         143.1976  142.6187  169.6582 C.3     1  UNL1        0.0005
      4 C         142.0079  143.3307  170.2306 C.3     1  UNL1        0.0000
      5 C         140.6540  143.1458  169.6119 C.3     1  UNL1        0.0005
      6 C         140.4898  142.2490  168.4208 C.3     1  UNL1        0.0106
      7 C         142.4978  140.6544  166.9531 C.3     1  UNL1        0.0100
      8 C         142.7763  139.2350  167.3504 C.3     1  UNL1        0.0005
      9 C         143.5945  138.3525  166.4551 C.3     1  UNL1        0.0000
     10 C         144.1341  138.8892  165.1625 C.3     1  UNL1        0.0000
     11 C         143.8556  140.3086  164.7653 C.3     1  UNL1        0.0000
     12 C         143.0374  141.1911  165.6606 C.3     1  UNL1        0.0005
     13 C         140.6098  141.0457  166.9187 C.2     1  UNL1        0.3159
     14 O         140.1785  141.8918  165.7577 O.2     1  UNL1       -0.2501
     15 O         139.9714  139.7082  167.1501 O.3     1  UNL1       -0.4470
     16 C         138.6275  139.4058  166.5563 C.3     1  UNL1        0.2257
     17 C         138.5093  138.4216  165.4305 C.3     1  UNL1        0.1201
     18 N         139.1218  138.7309  164.0966 N.3     1  UNL1       -0.2696
     19 C         141.1566  137.1310  163.8733 C.3     1  UNL1        0.0188
     20 C         140.5908  138.5203  163.8788 C.3     1  UNL1        0.0722
     21 C         138.2651  139.2509  162.9805 C.3     1  UNL1        0.0722
     22 C         138.0185  138.4040  161.7672 C.3     1  UNL1        0.0188
@<TRIPOS>BOND
     1    19    20    1
     2    20    18    1
     3    18    21    1
     4    21    22    1
     5    18    17    1
     6    17    16    1
     7    16    15    1
     8    15    13    1
     9    13    14    2
    10    13     1    1
    11     1     7    1
    12     7     8    1
    13     8     9    1
    14     9    10    1
    15    10    11    1
    16    11    12    1
    17     1     2    1
    18     2     3    1
    19     3     4    1
    20     4     5    1
    21     5     6    1
    22     6     1    1
    23    12     7    1
@<TRIPOS>MOLECULE
*****
 22 23 0 0 0
SMALL
GASTEIGER

@<TRIPOS>ATOM
      1 C         142.0730  142.1695  166.8032 C.3     1  UNL1        0.0896
      2 C         143.2490  142.1594  167.7342 C.3     1  UNL1        0.0106
      3 C         143.0692  142.5402  169.1739 C.3     1  UNL1        0.0005
      4 C         141.7133  142.9311  169.6825 C.3     1  UNL1        0.0000
      5 C         140.5372  142.9413  168.7515 C.3     1  UNL1        0.0005
      6 C         140.7171  142.5605  167.3119 C.3     1  UNL1        0.0106
      7 C         143.1504  141.7290  165.8571 C.3     1  UNL1        0.0100
      8 C         144.1004  142.7366  165.2806 C.3     1  UNL1        0.0005
      9 C         145.1778  142.2960  164.3345 C.3     1  UNL1        0.0000
     10 C         145.3051  140.8478  163.9648 C.3     1  UNL1        0.0000
     11 C         144.3551  139.8403  164.5412 C.3     1  UNL1        0.0000
     12 C         143.2778  140.2809  165.4873 C.3     1  UNL1        0.0005
     13 C         141.2711  142.0267  165.5436 C.2     1  UNL1        0.3159
     14 O         140.2501  140.9343  165.4244 O.2     1  UNL1       -0.2501
     15 O         141.4902  142.9762  164.4033 O.3     1  UNL1       -0.4470
     16 C         140.8087  142.7390  163.0882 C.3     1  UNL1        0.2257
     17 C         139.5228  143.4436  162.7721 C.3     1  UNL1        0.1201
     18 N         138.2578  143.0465  163.4737 N.3     1  UNL1       -0.2696
     19 C         138.6776  144.8758  165.2702 C.3     1  UNL1        0.0188
     20 C         137.8555  143.7373  164.7429 C.3     1  UNL1        0.0722
     21 C         137.3953  141.9585  162.9061 C.3     1  UNL1        0.0722
     22 C         137.8152  140.5242  163.0351 C.3     1  UNL1        0.0188
@<TRIPOS>BOND
     1    19    20    1
     2    20    18    1
     3    18    21    1
     4    21    22    1
     5    18    17    1
     6    17    16    1
     7    16    15    1
     8    15    13    1
     9    13    14    2
    10    13     1    1
    11     1     7    1
    12     7     8    1
    13     8     9    1
    14     9    10    1
    15    10    11    1
    16    11    12    1
    17     1     2    1
    18     2     3    1
    19     3     4    1
    20     4     5    1
    21     5     6    1
    22     6     1    1
    23    12     7    1
@<TRIPOS>MOLECULE
*****
 22 23 0 0 0
SMALL
GASTEIGER

@<TRIPOS>ATOM
      1 C         140.2022  141.2910  167.4938 C.3     1  UNL1        0.0896
      2 C         139.7221  140.2841  168.4966 C.3     1  UNL1        0.0106
      3 C         139.5276  140.6858  169.9287 C.3     1  UNL1        0.0005
      4 C         139.8132  142.0944  170.3579 C.3     1  UNL1        0.0000
      5 C         140.2933  143.1013  169.3551 C.3     1  UNL1        0.0005
      6 C         140.4878  142.6996  167.9231 C.3     1  UNL1        0.0106
      7 C         140.0670  140.0868  166.6096 C.3     1  UNL1        0.0100
      8 C         141.2877  139.4613  166.0025 C.3     1  UNL1        0.0005
      9 C         141.1524  138.2572  165.1183 C.3     1  UNL1        0.0000
     10 C         139.7965  137.6786  164.8412 C.3     1  UNL1        0.0000
     11 C         138.5758  138.3042  165.4483 C.3     1  UNL1        0.0000
     12 C         138.7111  139.5083  166.3325 C.3     1  UNL1        0.0005
     13 C         140.6353  141.8797  166.1839 C.2     1  UNL1        0.3159
     14 O         139.6341  142.0839  165.0857 O.2     1  UNL1       -0.2501
     15 O         142.0696  142.2643  165.9722 O.3     1  UNL1       -0.4470
     16 C         142.4839  142.9447  164.7011 C.3     1  UNL1        0.2257
     17 C         143.9060  143.3837  164.5146 C.3     1  UNL1        0.1201
     18 N         144.7280  142.8095  163.3989 N.3     1  UNL1       -0.2696
     19 C         145.1796  140.3445  164.0842 C.3     1  UNL1        0.0188
     20 C         145.6917  141.6937  163.6748 C.3     1  UNL1        0.0722
     21 C         144.5863  143.3513  162.0074 C.3     1  UNL1        0.0722
     22 C         144.6204  142.4192  160.8326 C.3     1  UNL1        0.0188
@<TRIPOS>BOND
     1    19    20    1
     2    20    18    1
     3    18    21    1
     4    21    22    1
     5    18    17    1
     6    17    16    1
     7    16    15    1
     8    15    13    1
     9    13    14    2
    10    13     1    1
    11     1     7    1
    12     7     8    1
    13     8     9    1
    14     9    10    1
    15    10    11    1
    16    11    12    1
    17     1     2    1
    18     2     3    1
    19     3     4    1
    20     4     5    1
    21     5     6    1
    22     6     1    1
    23    12     7    1
