@<TRIPOS>MOLECULE
*****
 33 37 0 0 0
SMALL
GASTEIGER

@<TRIPOS>ATOM
      1 C         140.7984  142.6962  167.6585 C.ar    1  UNL1        0.1056
      2 C         142.0385  142.0230  167.1499 C.ar    1  UNL1        0.0214
      3 C         142.4321  142.1653  165.7095 C.ar    1  UNL1        0.0379
      4 C         141.5855  142.9808  164.7777 C.ar    1  UNL1        0.1342
      5 C         140.3454  143.6540  165.2863 C.ar    1  UNL1        0.0132
      6 C         139.9518  143.5117  166.7268 C.ar    1  UNL1        0.0171
      7 C         139.4988  144.4695  164.3546 C.3     1  UNL1        0.0330
      8 C         139.8923  144.6118  162.9141 C.3     1  UNL1        0.0448
      9 C         141.1325  143.9386  162.4055 C.3     1  UNL1        0.1351
     10 C         142.3888  143.2259  162.0006 C.3     1  UNL1        0.0418
     11 C         143.0406  143.1733  160.6506 C.3     1  UNL1        0.0251
     12 C         142.5972  143.8205  159.3722 C.3     1  UNL1        0.0951
     13 N         141.3924  144.6800  159.1279 N.am    1  UNL1       -0.2641
     14 C         141.2243  145.1811  157.7241 C.2     1  UNL1        0.3039
     15 O         142.2281  144.8145  156.6716 O.2     1  UNL1       -0.2526
     16 N         140.0522  146.0489  157.3728 N.am    1  UNL1       -0.2901
     17 C         140.3335  145.1047  160.1017 C.3     1  UNL1        0.0985
     18 C         140.2179  144.7747  161.5604 C.3     1  UNL1        0.0615
     19 O         141.9791  143.1230  163.3373 O.3     1  UNL1       -0.4828
     20 H         139.3933  146.2895  158.0636 H       1  UNL1        0.1509
     21 C         140.0111  142.4116  170.5394 C.3     1  UNL1        0.1816
     22 S         140.4047  142.5540  169.0990 S.O2    1  UNL1        0.0104
     23 O         139.9812  143.9926  169.1254 O.2     1  UNL1       -0.1686
     24 O         140.8283  141.1152  169.0726 O.2     1  UNL1       -0.1686
     25 C         139.8841  146.5500  155.9690 C.3     1  UNL1        0.0774
     26 C         139.8465  146.2892  154.4924 C.3     1  UNL1        0.0259
     27 C         139.6306  147.6788  155.0142 C.3     1  UNL1        0.0420
     28 C         139.3595  149.1328  154.7644 C.ar    1  UNL1       -0.0208
     29 C         139.7058  149.7433  153.4388 C.ar    1  UNL1       -0.0042
     30 C         139.4347  151.1974  153.1890 C.ar    1  UNL1       -0.0003
     31 C         138.8174  152.0408  154.2648 C.ar    1  UNL1       -0.0000
     32 C         138.4712  151.4303  155.5904 C.ar    1  UNL1       -0.0003
     33 C         138.7422  149.9763  155.8403 C.ar    1  UNL1       -0.0042
@<TRIPOS>BOND
     1    21    22    1
     2    22    23    2
     3    22    24    2
     4    22     1    1
     5     1     2   ar
     6     2     3   ar
     7     3     4   ar
     8     4     5   ar
     9     5     6   ar
    10     5     7    1
    11     7     8    1
    12     8     9    1
    13     9    10    1
    14    10    11    1
    15    11    12    1
    16    12    13    1
    17    13    14   am
    18    14    15    2
    19    14    16   am
    20    25    16    1
    21    25    26    1
    22    26    27    1
    23    27    28    1
    24    28    29   ar
    25    29    30   ar
    26    30    31   ar
    27    31    32   ar
    28    32    33   ar
    29    13    17    1
    30    17    18    1
    31     9    19    1
    32     6     1   ar
    33    18     9    1
    34    19     4    1
    35    27    25    1
    36    33    28   ar
    37    16    20    1
@<TRIPOS>MOLECULE
*****
 33 37 0 0 0
SMALL
GASTEIGER

@<TRIPOS>ATOM
      1 C         142.5994  140.8572  168.1830 C.ar    1  UNL1        0.1056
      2 C         142.9771  142.1298  167.4846 C.ar    1  UNL1        0.0214
      3 C         143.1605  142.1425  165.9960 C.ar    1  UNL1        0.0379
      4 C         142.9662  140.8825  165.2055 C.ar    1  UNL1        0.1342
      5 C         142.5885  139.6098  165.9039 C.ar    1  UNL1        0.0132
      6 C         142.4051  139.5972  167.3927 C.ar    1  UNL1        0.0171
      7 C         142.3942  138.3498  165.1136 C.3     1  UNL1        0.0330
      8 C         142.5775  138.3624  163.6249 C.3     1  UNL1        0.0448
      9 C         142.9552  139.6350  162.9266 C.3     1  UNL1        0.1351
     10 C         143.3324  140.9580  162.3285 C.3     1  UNL1        0.0418
     11 C         143.5846  141.2957  160.8889 C.3     1  UNL1        0.0251
     12 C         143.5221  140.3939  159.6920 C.3     1  UNL1        0.0951
     13 N         143.1918  138.9317  159.6388 N.am    1  UNL1       -0.2641
     14 C         143.2137  138.3086  158.2746 C.2     1  UNL1        0.3039
     15 O         143.5513  139.1428  157.0745 O.2     1  UNL1       -0.2526
     16 N         142.8981  136.8514  158.1104 N.am    1  UNL1       -0.2901
     17 C         142.8425  138.0101  160.7696 C.3     1  UNL1        0.0985
     18 C         142.7373  138.3232  162.2328 C.3     1  UNL1        0.0615
     19 O         143.1496  140.8951  163.7169 O.3     1  UNL1       -0.4828
     20 H         142.6766  136.3039  158.8980 H       1  UNL1        0.1509
     21 C         142.2327  140.8317  171.1604 C.3     1  UNL1        0.1816
     22 S         142.4161  140.8445  169.6717 S.O2    1  UNL1        0.0104
     23 O         141.8000  142.2106  169.6075 O.2     1  UNL1       -0.1686
     24 O         143.0322  139.4783  169.7358 O.2     1  UNL1       -0.1686
     25 C         142.9200  136.2284  156.7460 C.3     1  UNL1        0.0774
     26 C         142.7051  136.3356  155.2654 C.3     1  UNL1        0.0259
     27 C         143.1730  135.0420  155.8636 C.3     1  UNL1        0.0420
     28 C         143.5892  133.6103  155.6996 C.ar    1  UNL1       -0.0208
     29 C         143.0205  132.7873  154.5819 C.ar    1  UNL1       -0.0042
     30 C         143.4367  131.3555  154.4180 C.ar    1  UNL1       -0.0003
     31 C         144.4215  130.7468  155.3716 C.ar    1  UNL1       -0.0000
     32 C         144.9902  131.5699  156.4892 C.ar    1  UNL1       -0.0003
     33 C         144.5741  133.0016  156.6532 C.ar    1  UNL1       -0.0042
@<TRIPOS>BOND
     1    21    22    1
     2    22    23    2
     3    22    24    2
     4    22     1    1
     5     1     2   ar
     6     2     3   ar
     7     3     4   ar
     8     4     5   ar
     9     5     6   ar
    10     5     7    1
    11     7     8    1
    12     8     9    1
    13     9    10    1
    14    10    11    1
    15    11    12    1
    16    12    13    1
    17    13    14   am
    18    14    15    2
    19    14    16   am
    20    25    16    1
    21    25    26    1
    22    26    27    1
    23    27    28    1
    24    28    29   ar
    25    29    30   ar
    26    30    31   ar
    27    31    32   ar
    28    32    33   ar
    29    13    17    1
    30    17    18    1
    31     9    19    1
    32     6     1   ar
    33    18     9    1
    34    19     4    1
    35    27    25    1
    36    33    28   ar
    37    16    20    1
@<TRIPOS>MOLECULE
*****
 33 37 0 0 0
SMALL
GASTEIGER

@<TRIPOS>ATOM
      1 C         141.2977  140.0547  168.3524 C.ar    1  UNL1        0.1056
      2 C         139.8747  140.1818  167.8955 C.ar    1  UNL1        0.0214
      3 C         139.5251  139.9447  166.4563 C.ar    1  UNL1        0.0379
      4 C         140.5985  139.5805  165.4738 C.ar    1  UNL1        0.1342
      5 C         142.0216  139.4534  165.9307 C.ar    1  UNL1        0.0132
      6 C         142.3712  139.6906  167.3700 C.ar    1  UNL1        0.0171
      7 C         143.0950  139.0893  164.9483 C.3     1  UNL1        0.0330
      8 C         142.7454  138.8522  163.5090 C.3     1  UNL1        0.0448
      9 C         141.3224  138.9792  163.0521 C.3     1  UNL1        0.1351
     10 C         139.8720  139.1319  162.7010 C.3     1  UNL1        0.0418
     11 C         139.2104  138.9638  161.3653 C.3     1  UNL1        0.0251
     12 C         139.8358  138.6016  160.0509 C.3     1  UNL1        0.0951
     13 N         141.2771  138.3180  159.7475 N.am    1  UNL1       -0.2641
     14 C         141.5875  137.9813  158.3191 C.2     1  UNL1        0.3039
     15 O         140.4867  137.9452  157.3009 O.2     1  UNL1       -0.2526
     16 N         142.9987  137.6808  157.9090 N.am    1  UNL1       -0.2901
     17 C         142.4491  138.3265  160.6836 C.3     1  UNL1        0.0985
     18 C         142.4692  138.6208  162.1543 C.3     1  UNL1        0.0615
     19 O         140.2489  139.3434  164.0346 O.3     1  UNL1       -0.4828
     20 H         143.7212  137.7045  158.5773 H       1  UNL1        0.1509
     21 C         141.9972  140.5290  171.2309 C.3     1  UNL1        0.1816
     22 S         141.6474  140.2918  169.7917 S.O2    1  UNL1        0.0104
     23 O         140.4144  139.5493  170.2136 O.2     1  UNL1       -0.1686
     24 O         142.8805  141.0345  169.3697 O.2     1  UNL1       -0.1686
     25 C         143.3091  137.3441  156.4805 C.3     1  UNL1        0.0774
     26 C         143.8327  137.7493  155.1347 C.3     1  UNL1        0.0259
     27 C         143.3229  136.3556  155.3524 C.3     1  UNL1        0.0420
     28 C         143.0365  134.9802  154.8269 C.ar    1  UNL1       -0.0208
     29 C         143.5749  133.7767  155.5424 C.ar    1  UNL1       -0.0042
     30 C         143.2885  132.4013  155.0168 C.ar    1  UNL1       -0.0003
     31 C         142.4637  132.2293  153.7758 C.ar    1  UNL1       -0.0000
     32 C         141.9254  133.4327  153.0603 C.ar    1  UNL1       -0.0003
     33 C         142.2118  134.8081  153.5858 C.ar    1  UNL1       -0.0042
@<TRIPOS>BOND
     1    21    22    1
     2    22    23    2
     3    22    24    2
     4    22     1    1
     5     1     2   ar
     6     2     3   ar
     7     3     4   ar
     8     4     5   ar
     9     5     6   ar
    10     5     7    1
    11     7     8    1
    12     8     9    1
    13     9    10    1
    14    10    11    1
    15    11    12    1
    16    12    13    1
    17    13    14   am
    18    14    15    2
    19    14    16   am
    20    25    16    1
    21    25    26    1
    22    26    27    1
    23    27    28    1
    24    28    29   ar
    25    29    30   ar
    26    30    31   ar
    27    31    32   ar
    28    32    33   ar
    29    13    17    1
    30    17    18    1
    31     9    19    1
    32     6     1   ar
    33    18     9    1
    34    19     4    1
    35    27    25    1
    36    33    28   ar
    37    16    20    1
@<TRIPOS>MOLECULE
*****
 33 37 0 0 0
SMALL
GASTEIGER

@<TRIPOS>ATOM
      1 C         142.5920  141.1450  168.3235 C.ar    1  UNL1        0.1056
      2 C         142.4015  139.7055  167.9475 C.ar    1  UNL1        0.0214
      3 C         142.5917  139.2705  166.5246 C.ar    1  UNL1        0.0379
      4 C         142.9724  140.2751  165.4777 C.ar    1  UNL1        0.1342
      5 C         143.1629  141.7146  165.8538 C.ar    1  UNL1        0.0132
      6 C         142.9727  142.1496  167.2767 C.ar    1  UNL1        0.0171
      7 C         143.5436  142.7192  164.8070 C.3     1  UNL1        0.0330
      8 C         143.7338  142.2843  163.3841 C.3     1  UNL1        0.0448
      9 C         143.5433  140.8448  163.0080 C.3     1  UNL1        0.1351
     10 C         143.3287  139.3846  162.7396 C.3     1  UNL1        0.0418
     11 C         143.4408  138.6465  161.4385 C.3     1  UNL1        0.0251
     12 C         143.7951  139.1863  160.0847 C.3     1  UNL1        0.0951
     13 N         144.1249  140.5974  159.6973 N.am    1  UNL1       -0.2641
     14 C         144.4393  140.8178  158.2474 C.2     1  UNL1        0.3039
     15 O         144.4107  139.6635  157.2899 O.2     1  UNL1       -0.2526
     16 N         144.7824  142.1925  157.7548 N.am    1  UNL1       -0.2901
     17 C         144.1818  141.8173  160.5683 C.3     1  UNL1        0.0985
     18 C         143.9229  141.9273  162.0417 C.3     1  UNL1        0.0615
     19 O         143.1626  139.8401  164.0549 O.3     1  UNL1       -0.4828
     20 H         144.8012  142.9501  158.3832 H       1  UNL1        0.1509
     21 C         142.2115  142.0149  171.1693 C.3     1  UNL1        0.1816
     22 S         142.4018  141.5800  169.7464 S.O2    1  UNL1        0.0104
     23 O         143.1021  142.8717  169.4452 O.2     1  UNL1       -0.1686
     24 O         141.7013  140.2882  170.0477 O.2     1  UNL1       -0.1686
     25 C         145.0969  142.4129  156.3047 C.3     1  UNL1        0.0774
     26 C         144.6367  142.6611  154.8989 C.3     1  UNL1        0.0259
     27 C         146.1018  142.5462  155.1991 C.3     1  UNL1        0.0420
     28 C         147.5279  142.5569  154.7343 C.ar    1  UNL1       -0.0208
     29 C         147.9285  143.4036  153.5627 C.ar    1  UNL1       -0.0042
     30 C         149.3547  143.4142  153.0979 C.ar    1  UNL1       -0.0003
     31 C         150.3801  142.5781  153.8045 C.ar    1  UNL1       -0.0000
     32 C         149.9794  141.7314  154.9761 C.ar    1  UNL1       -0.0003
     33 C         148.5533  141.7208  155.4409 C.ar    1  UNL1       -0.0042
@<TRIPOS>BOND
     1    21    22    1
     2    22    23    2
     3    22    24    2
     4    22     1    1
     5     1     2   ar
     6     2     3   ar
     7     3     4   ar
     8     4     5   ar
     9     5     6   ar
    10     5     7    1
    11     7     8    1
    12     8     9    1
    13     9    10    1
    14    10    11    1
    15    11    12    1
    16    12    13    1
    17    13    14   am
    18    14    15    2
    19    14    16   am
    20    25    16    1
    21    25    26    1
    22    26    27    1
    23    27    28    1
    24    28    29   ar
    25    29    30   ar
    26    30    31   ar
    27    31    32   ar
    28    32    33   ar
    29    13    17    1
    30    17    18    1
    31     9    19    1
    32     6     1   ar
    33    18     9    1
    34    19     4    1
    35    27    25    1
    36    33    28   ar
    37    16    20    1
@<TRIPOS>MOLECULE
*****
 33 37 0 0 0
SMALL
GASTEIGER

@<TRIPOS>ATOM
      1 C         146.8054  142.2702  154.9853 C.ar    1  UNL1        0.1056
      2 C         146.3351  140.9233  154.5221 C.ar    1  UNL1        0.0214
      3 C         145.4265  140.1062  155.3920 C.ar    1  UNL1        0.0379
      4 C         144.9881  140.6359  156.7251 C.ar    1  UNL1        0.1342
      5 C         145.4584  141.9828  157.1884 C.ar    1  UNL1        0.0132
      6 C         146.3671  142.8000  156.3184 C.ar    1  UNL1        0.0171
      7 C         145.0201  142.5127  158.5214 C.3     1  UNL1        0.0330
      8 C         144.1115  141.6956  159.3914 C.3     1  UNL1        0.0448
      9 C         143.6412  140.3487  158.9281 C.3     1  UNL1        0.1351
     10 C         143.2303  139.0179  158.3711 C.3     1  UNL1        0.0418
     11 C         142.3403  137.9801  158.9885 C.3     1  UNL1        0.0251
     12 C         141.6415  138.0169  160.3151 C.3     1  UNL1        0.0951
     13 N         141.6600  139.1004  161.3523 N.am    1  UNL1       -0.2641
     14 C         140.8494  138.8343  162.5860 C.2     1  UNL1        0.3039
     15 O         140.0882  137.5488  162.7205 O.2     1  UNL1       -0.2526
     16 N         140.7999  139.8538  163.6852 N.am    1  UNL1       -0.2901
     17 C         142.3819  140.4148  161.3188 C.3     1  UNL1        0.0985
     18 C         143.2636  140.9703  160.2399 C.3     1  UNL1        0.0615
     19 O         144.0795  139.8188  157.5950 O.3     1  UNL1       -0.4828
     20 H         141.2994  140.6975  163.5970 H       1  UNL1        0.1509
     21 C         148.6226  143.9046  153.2456 C.3     1  UNL1        0.1816
     22 S         147.7140  143.0874  154.1155 S.O2    1  UNL1        0.0104
     23 O         148.6909  141.9501  154.0674 O.2     1  UNL1       -0.1686
     24 O         146.7371  144.2247  154.1636 O.2     1  UNL1       -0.1686
     25 C         139.9892  139.5876  164.9190 C.3     1  UNL1        0.0774
     26 C         138.9473  138.7856  165.6407 C.3     1  UNL1        0.0259
     27 C         139.6271  139.9289  166.3341 C.3     1  UNL1        0.0420
     28 C         139.8106  140.7860  167.5513 C.ar    1  UNL1       -0.0208
     29 C         140.4136  142.1533  167.4218 C.ar    1  UNL1       -0.0042
     30 C         140.5970  143.0104  168.6391 C.ar    1  UNL1       -0.0003
     31 C         140.1775  142.5002  169.9858 C.ar    1  UNL1       -0.0000
     32 C         139.5745  141.1329  170.1152 C.ar    1  UNL1       -0.0003
     33 C         139.3910  140.2758  168.8980 C.ar    1  UNL1       -0.0042
@<TRIPOS>BOND
     1    21    22    1
     2    22    23    2
     3    22    24    2
     4    22     1    1
     5     1     2   ar
     6     2     3   ar
     7     3     4   ar
     8     4     5   ar
     9     5     6   ar
    10     5     7    1
    11     7     8    1
    12     8     9    1
    13     9    10    1
    14    10    11    1
    15    11    12    1
    16    12    13    1
    17    13    14   am
    18    14    15    2
    19    14    16   am
    20    25    16    1
    21    25    26    1
    22    26    27    1
    23    27    28    1
    24    28    29   ar
    25    29    30   ar
    26    30    31   ar
    27    31    32   ar
    28    32    33   ar
    29    13    17    1
    30    17    18    1
    31     9    19    1
    32     6     1   ar
    33    18     9    1
    34    19     4    1
    35    27    25    1
    36    33    28   ar
    37    16    20    1
@<TRIPOS>MOLECULE
*****
 33 37 0 0 0
SMALL
GASTEIGER

@<TRIPOS>ATOM
      1 C         142.2284  140.8368  167.9035 C.ar    1  UNL1        0.1056
      2 C         142.8458  142.0895  167.3563 C.ar    1  UNL1        0.0214
      3 C         142.4837  142.5652  165.9807 C.ar    1  UNL1        0.0379
      4 C         141.5041  141.7881  165.1520 C.ar    1  UNL1        0.1342
      5 C         140.8867  140.5353  165.6992 C.ar    1  UNL1        0.0132
      6 C         141.2488  140.0597  167.0750 C.ar    1  UNL1        0.0171
      7 C         139.9071  139.7582  164.8706 C.3     1  UNL1        0.0330
      8 C         139.5450  140.2338  163.4949 C.3     1  UNL1        0.0448
      9 C         140.1625  141.4865  162.9477 C.3     1  UNL1        0.1351
     10 C         140.8361  142.7488  162.4972 C.3     1  UNL1        0.0418
     11 C         140.6882  143.4733  161.1921 C.3     1  UNL1        0.0251
     12 C         139.8303  143.1145  160.0153 C.3     1  UNL1        0.0951
     13 N         138.9082  141.9426  159.8527 N.am    1  UNL1       -0.2641
     14 C         138.1820  141.8626  158.5428 C.2     1  UNL1        0.3039
     15 O         138.4022  142.9158  157.4976 O.2     1  UNL1       -0.2526
     16 N         137.2354  140.7295  158.2779 N.am    1  UNL1       -0.2901
     17 C         138.6164  140.8400  160.8270 C.3     1  UNL1        0.0985
     18 C         139.1747  140.6371  162.2044 C.3     1  UNL1        0.0615
     19 O         141.1421  142.2637  163.7763 O.3     1  UNL1       -0.4828
     20 H         137.0908  140.0382  158.9639 H       1  UNL1        0.1509
     21 C         142.9525  139.8856  170.6550 C.3     1  UNL1        0.1816
     22 S         142.5904  140.3611  169.2792 S.O2    1  UNL1        0.0104
     23 O         142.9622  139.0207  168.7180 O.2     1  UNL1       -0.1686
     24 O         142.2186  141.7016  169.8405 O.2     1  UNL1       -0.1686
     25 C         136.5091  140.6495  156.9678 C.3     1  UNL1        0.0774
     26 C         136.5294  140.6671  155.4682 C.3     1  UNL1        0.0259
     27 C         135.2308  140.4935  156.1986 C.3     1  UNL1        0.0420
     28 C         133.7431  140.3033  156.1764 C.ar    1  UNL1       -0.0208
     29 C         133.1415  139.0329  156.7001 C.ar    1  UNL1       -0.0042
     30 C         131.6538  138.8427  156.6778 C.ar    1  UNL1       -0.0003
     31 C         130.7677  139.9227  156.1318 C.ar    1  UNL1       -0.0000
     32 C         131.3693  141.1931  155.6081 C.ar    1  UNL1       -0.0003
     33 C         132.8569  141.3834  155.6304 C.ar    1  UNL1       -0.0042
@<TRIPOS>BOND
     1    21    22    1
     2    22    23    2
     3    22    24    2
     4    22     1    1
     5     1     2   ar
     6     2     3   ar
     7     3     4   ar
     8     4     5   ar
     9     5     6   ar
    10     5     7    1
    11     7     8    1
    12     8     9    1
    13     9    10    1
    14    10    11    1
    15    11    12    1
    16    12    13    1
    17    13    14   am
    18    14    15    2
    19    14    16   am
    20    25    16    1
    21    25    26    1
    22    26    27    1
    23    27    28    1
    24    28    29   ar
    25    29    30   ar
    26    30    31   ar
    27    31    32   ar
    28    32    33   ar
    29    13    17    1
    30    17    18    1
    31     9    19    1
    32     6     1   ar
    33    18     9    1
    34    19     4    1
    35    27    25    1
    36    33    28   ar
    37    16    20    1
@<TRIPOS>MOLECULE
*****
 33 37 0 0 0
SMALL
GASTEIGER

@<TRIPOS>ATOM
      1 C         142.6183  140.9363  168.0913 C.ar    1  UNL1        0.1056
      2 C         143.1522  142.2705  167.6614 C.ar    1  UNL1        0.0214
      3 C         143.4703  142.5210  166.2171 C.ar    1  UNL1        0.0379
      4 C         143.2545  141.4372  165.2026 C.ar    1  UNL1        0.1342
      5 C         142.7207  140.1030  165.6326 C.ar    1  UNL1        0.0132
      6 C         142.4026  139.8526  167.0770 C.ar    1  UNL1        0.0171
      7 C         142.5049  139.0193  164.6183 C.3     1  UNL1        0.0330
      8 C         142.8229  139.2697  163.1739 C.3     1  UNL1        0.0448
      9 C         143.3568  140.6039  162.7440 C.3     1  UNL1        0.1351
     10 C         143.8848  141.9704  162.4213 C.3     1  UNL1        0.0418
     11 C         144.2912  142.5252  161.0882 C.3     1  UNL1        0.0251
     12 C         144.2701  141.8507  159.7487 C.3     1  UNL1        0.0951
     13 N         143.8373  140.4547  159.4113 N.am    1  UNL1       -0.2641
     14 C         143.9361  140.0746  157.9636 C.2     1  UNL1        0.3039
     15 O         144.4427  141.0680  156.9603 O.2     1  UNL1       -0.2526
     16 N         143.5282  138.7012  157.5192 N.am    1  UNL1       -0.2901
     17 C         143.3187  139.3884  160.3301 C.3     1  UNL1        0.0985
     18 C         143.1049  139.4549  161.8133 C.3     1  UNL1        0.0615
     19 O         143.5726  141.6877  163.7584 O.3     1  UNL1       -0.4828
     20 H         143.1957  138.0492  158.1777 H       1  UNL1        0.1509
     21 C         141.9822  140.4351  170.9800 C.3     1  UNL1        0.1816
     22 S         142.3002  140.6858  169.5356 S.O2    1  UNL1        0.0104
     23 O         141.3948  141.8816  169.5437 O.2     1  UNL1       -0.1686
     24 O         143.2057  139.4899  169.5276 O.2     1  UNL1       -0.1686
     25 C         143.6270  138.3212  156.0714 C.3     1  UNL1        0.0774
     26 C         144.0863  138.6268  154.6767 C.3     1  UNL1        0.0259
     27 C         143.3389  137.3573  154.9588 C.3     1  UNL1        0.0420
     28 C         142.7409  136.0679  154.4794 C.ar    1  UNL1       -0.0208
     29 C         143.2081  134.7644  155.0561 C.ar    1  UNL1       -0.0042
     30 C         142.6101  133.4750  154.5766 C.ar    1  UNL1       -0.0003
     31 C         141.5449  133.4891  153.5207 C.ar    1  UNL1       -0.0000
     32 C         141.0777  134.7926  152.9440 C.ar    1  UNL1       -0.0003
     33 C         141.6757  136.0820  153.4234 C.ar    1  UNL1       -0.0042
@<TRIPOS>BOND
     1    21    22    1
     2    22    23    2
     3    22    24    2
     4    22     1    1
     5     1     2   ar
     6     2     3   ar
     7     3     4   ar
     8     4     5   ar
     9     5     6   ar
    10     5     7    1
    11     7     8    1
    12     8     9    1
    13     9    10    1
    14    10    11    1
    15    11    12    1
    16    12    13    1
    17    13    14   am
    18    14    15    2
    19    14    16   am
    20    25    16    1
    21    25    26    1
    22    26    27    1
    23    27    28    1
    24    28    29   ar
    25    29    30   ar
    26    30    31   ar
    27    31    32   ar
    28    32    33   ar
    29    13    17    1
    30    17    18    1
    31     9    19    1
    32     6     1   ar
    33    18     9    1
    34    19     4    1
    35    27    25    1
    36    33    28   ar
    37    16    20    1
@<TRIPOS>MOLECULE
*****
 33 37 0 0 0
SMALL
GASTEIGER

@<TRIPOS>ATOM
      1 C         139.7014  146.5824  155.4742 C.ar    1  UNL1        0.1056
      2 C         138.8608  145.3982  155.0985 C.ar    1  UNL1        0.0214
      3 C         138.8063  144.2008  156.0002 C.ar    1  UNL1        0.0379
      4 C         139.5923  144.1875  157.2778 C.ar    1  UNL1        0.1342
      5 C         140.4329  145.3717  157.6535 C.ar    1  UNL1        0.0132
      6 C         140.4874  146.5692  156.7517 C.ar    1  UNL1        0.0171
      7 C         141.2189  145.3585  158.9310 C.3     1  UNL1        0.0330
      8 C         141.1644  144.1611  159.8328 C.3     1  UNL1        0.0448
      9 C         140.3239  142.9769  159.4571 C.3     1  UNL1        0.1351
     10 C         139.4540  141.8482  158.9883 C.3     1  UNL1        0.0418
     11 C         139.1919  140.5303  159.6551 C.3     1  UNL1        0.0251
     12 C         139.7348  140.0157  160.9552 C.3     1  UNL1        0.0951
     13 N         140.6739  140.6918  161.9097 N.am    1  UNL1       -0.2641
     14 C         141.0322  139.9063  163.1363 C.2     1  UNL1        0.3039
     15 O         140.4581  138.5361  163.3437 O.2     1  UNL1       -0.2526
     16 N         141.9646  140.4909  164.1555 N.am    1  UNL1       -0.2901
     17 C         141.3020  142.0494  161.7998 C.3     1  UNL1        0.0985
     18 C         141.1462  143.0664  160.7082 C.3     1  UNL1        0.0615
     19 O         139.5378  142.9901  158.1795 O.3     1  UNL1       -0.4828
     20 H         142.3414  141.3902  164.0194 H       1  UNL1        0.1509
     21 C         139.8106  148.9773  153.6707 C.3     1  UNL1        0.1816
     22 S         139.7560  147.7799  154.5725 S.O2    1  UNL1        0.0104
     23 O         138.8406  148.5210  155.5012 O.2     1  UNL1       -0.1686
     24 O         140.6714  147.0386  153.6437 O.2     1  UNL1       -0.1686
     25 C         142.3229  139.7053  165.3822 C.3     1  UNL1        0.0774
     26 C         143.0586  138.5689  166.0280 C.3     1  UNL1        0.0259
     27 C         142.2078  139.4813  166.8609 C.3     1  UNL1        0.0420
     28 C         141.6502  139.8788  168.1954 C.ar    1  UNL1       -0.0208
     29 C         140.1748  140.0957  168.3573 C.ar    1  UNL1       -0.0042
     30 C         139.6172  140.4932  169.6919 C.ar    1  UNL1       -0.0003
     31 C         140.5349  140.6737  170.8645 C.ar    1  UNL1       -0.0000
     32 C         142.0103  140.4568  170.7026 C.ar    1  UNL1       -0.0003
     33 C         142.5679  140.0593  169.3681 C.ar    1  UNL1       -0.0042
@<TRIPOS>BOND
     1    21    22    1
     2    22    23    2
     3    22    24    2
     4    22     1    1
     5     1     2   ar
     6     2     3   ar
     7     3     4   ar
     8     4     5   ar
     9     5     6   ar
    10     5     7    1
    11     7     8    1
    12     8     9    1
    13     9    10    1
    14    10    11    1
    15    11    12    1
    16    12    13    1
    17    13    14   am
    18    14    15    2
    19    14    16   am
    20    25    16    1
    21    25    26    1
    22    26    27    1
    23    27    28    1
    24    28    29   ar
    25    29    30   ar
    26    30    31   ar
    27    31    32   ar
    28    32    33   ar
    29    13    17    1
    30    17    18    1
    31     9    19    1
    32     6     1   ar
    33    18     9    1
    34    19     4    1
    35    27    25    1
    36    33    28   ar
    37    16    20    1
@<TRIPOS>MOLECULE
*****
 33 37 0 0 0
SMALL
GASTEIGER

@<TRIPOS>ATOM
      1 C         139.9873  146.2419  155.0720 C.ar    1  UNL1        0.1056
      2 C         139.3263  144.9917  154.5719 C.ar    1  UNL1        0.0214
      3 C         138.9970  143.8836  155.5277 C.ar    1  UNL1        0.0379
      4 C         139.3287  144.0256  156.9837 C.ar    1  UNL1        0.1342
      5 C         139.9897  145.2757  157.4838 C.ar    1  UNL1        0.0132
      6 C         140.3190  146.3839  156.5279 C.ar    1  UNL1        0.0171
      7 C         140.3214  145.4178  158.9397 C.3     1  UNL1        0.0330
      8 C         139.9921  144.3097  159.8956 C.3     1  UNL1        0.0448
      9 C         139.3310  143.0596  159.3955 C.3     1  UNL1        0.1351
     10 C         138.6717  141.8545  158.7926 C.3     1  UNL1        0.0418
     11 C         138.2231  140.5953  159.4732 C.3     1  UNL1        0.0251
     12 C         138.3230  140.2301  160.9245 C.3     1  UNL1        0.0951
     13 N         138.8961  141.0339  162.0539 N.am    1  UNL1       -0.2641
     14 C         138.8481  140.3843  163.4050 C.2     1  UNL1        0.3039
     15 O         138.2531  139.0159  163.5586 O.2     1  UNL1       -0.2526
     16 N         139.3950  141.1030  164.6027 N.am    1  UNL1       -0.2901
     17 C         139.5110  142.4014  162.0108 C.3     1  UNL1        0.0985
     18 C         139.7045  143.3029  160.8276 C.3     1  UNL1        0.0615
     19 O         138.9993  142.9175  157.9394 O.3     1  UNL1       -0.4828
     20 H         139.7855  142.0011  164.5020 H       1  UNL1        0.1509
     21 C         140.6462  148.4581  153.1604 C.3     1  UNL1        0.1816
     22 S         140.3167  147.3500  154.1162 S.O2    1  UNL1        0.0104
     23 O         139.2731  148.2146  154.7590 O.2     1  UNL1       -0.1686
     24 O         141.3605  146.4853  153.4735 O.2     1  UNL1       -0.1686
     25 C         139.3470  140.4533  165.9539 C.3     1  UNL1        0.0774
     26 C         138.8500  139.3601  166.8527 C.3     1  UNL1        0.0259
     27 C         139.7608  140.4212  167.3954 C.3     1  UNL1        0.0420
     28 C         140.5255  141.0154  168.5408 C.ar    1  UNL1       -0.0208
     29 C         140.6389  142.5051  168.6745 C.ar    1  UNL1       -0.0042
     30 C         141.4037  143.0993  169.8200 C.ar    1  UNL1       -0.0003
     31 C         142.0551  142.2037  170.8317 C.ar    1  UNL1       -0.0000
     32 C         141.9417  140.7140  170.6980 C.ar    1  UNL1       -0.0003
     33 C         141.1769  140.1198  169.5526 C.ar    1  UNL1       -0.0042
@<TRIPOS>BOND
     1    21    22    1
     2    22    23    2
     3    22    24    2
     4    22     1    1
     5     1     2   ar
     6     2     3   ar
     7     3     4   ar
     8     4     5   ar
     9     5     6   ar
    10     5     7    1
    11     7     8    1
    12     8     9    1
    13     9    10    1
    14    10    11    1
    15    11    12    1
    16    12    13    1
    17    13    14   am
    18    14    15    2
    19    14    16   am
    20    25    16    1
    21    25    26    1
    22    26    27    1
    23    27    28    1
    24    28    29   ar
    25    29    30   ar
    26    30    31   ar
    27    31    32   ar
    28    32    33   ar
    29    13    17    1
    30    17    18    1
    31     9    19    1
    32     6     1   ar
    33    18     9    1
    34    19     4    1
    35    27    25    1
    36    33    28   ar
    37    16    20    1
