@<TRIPOS>MOLECULE
*****
 31 34 0 0 0
SMALL
GASTEIGER

@<TRIPOS>ATOM
      1 C         141.4486  142.0890  166.2762 C.2     1  UNL1        0.0049
      2 C         140.9618  142.5241  167.6267 C.2     1  UNL1        0.0131
      3 C         141.2426  141.6785  168.8334 C.3     1  UNL1        0.1542
      4 C         140.4750  142.9591  168.9772 C.3     1  UNL1        0.0614
      5 C         139.9882  143.3941  170.3276 C.3     1  UNL1        0.0725
      6 N         140.2691  142.5485  171.5343 N.3     1  UNL1       -0.2972
      7 C         141.0367  141.2679  171.3905 C.3     1  UNL1        0.0725
      8 C         141.5235  140.8329  170.0400 C.3     1  UNL1        0.0614
      9 O         142.0103  140.3978  168.6895 O.3     1  UNL1       -0.4785
     10 C         142.4970  139.9628  167.3391 C.ar    1  UNL1        0.1386
     11 C         143.2647  138.6821  167.1952 C.ar    1  UNL1        0.0369
     12 C         143.7515  138.2471  165.8447 C.ar    1  UNL1        0.0031
     13 C         143.4706  139.0927  164.6381 C.ar    1  UNL1        0.0002
     14 C         142.7030  140.3734  164.7819 C.ar    1  UNL1        0.0030
     15 C         142.2162  140.8084  166.1324 C.ar    1  UNL1        0.0339
     16 H         139.3656  142.3061  171.9408 H       1  UNL1        0.1233
     17 C         140.6059  144.6259  162.6562 C.ar    1  UNL1        0.0566
     18 C         141.9176  144.7534  163.3725 C.ar    1  UNL1        0.0047
     19 C         142.1985  143.9077  164.5792 C.ar    1  UNL1        0.0031
     20 C         141.1677  142.9347  165.0695 C.ar    1  UNL1        0.0336
     21 C         139.8559  142.8072  164.3532 C.ar    1  UNL1        0.1337
     22 O         138.8251  141.8341  164.8435 O.3     1  UNL1       -0.5055
     23 C         139.5750  143.6528  163.1465 C.ar    1  UNL1        0.0411
     24 H         139.0005  141.3059  165.5973 H       1  UNL1        0.2922
     25 N         140.7144  144.9845  160.0853 N.am    1  UNL1       -0.2761
     26 C         140.3251  145.4715  161.4495 C.2     1  UNL1        0.2491
     27 O         139.6548  146.8042  161.6072 O.2     1  UNL1       -0.2699
     28 C         141.3676  145.7966  157.7054 C.3     1  UNL1        0.0233
     29 C         140.4335  145.8301  158.8786 C.3     1  UNL1        0.0938
     30 C         141.3846  143.6518  159.9277 C.3     1  UNL1        0.0938
     31 C         140.5800  142.4500  159.5302 C.3     1  UNL1        0.0233
@<TRIPOS>BOND
     1    28    29    1
     2    29    25    1
     3    25    30    1
     4    30    31    1
     5    25    26   am
     6    26    27    2
     7    26    17    1
     8    17    18   ar
     9    18    19   ar
    10    19    20   ar
    11    20     1    1
    12     1     2    2
    13     2     3    1
    14     3     4    1
    15     4     5    1
    16     5     6    1
    17     6     7    1
    18     7     8    1
    19     3     9    1
    20     9    10    1
    21    10    11   ar
    22    11    12   ar
    23    12    13   ar
    24    13    14   ar
    25    14    15   ar
    26    20    21   ar
    27    21    22    1
    28    21    23   ar
    29    23    17   ar
    30    15     1    1
    31     8     3    1
    32    15    10   ar
    33     6    16    1
    34    22    24    1
@<TRIPOS>MOLECULE
*****
 31 34 0 0 0
SMALL
GASTEIGER

@<TRIPOS>ATOM
      1 C         139.8110  141.9355  165.7815 C.2     1  UNL1        0.0049
      2 C         140.1860  142.4510  167.1393 C.2     1  UNL1        0.0131
      3 C         140.1603  141.5313  168.3241 C.3     1  UNL1        0.1542
      4 C         140.5610  142.9664  168.4971 C.3     1  UNL1        0.0614
      5 C         140.9360  143.4818  169.8550 C.3     1  UNL1        0.0725
      6 N         140.9103  142.5621  171.0397 N.3     1  UNL1       -0.2972
      7 C         140.5096  141.1270  170.8666 C.3     1  UNL1        0.0725
      8 C         140.1347  140.6116  169.5088 C.3     1  UNL1        0.0614
      9 O         139.7597  140.0962  168.1509 O.3     1  UNL1       -0.4785
     10 C         139.3847  139.5807  166.7931 C.ar    1  UNL1        0.1386
     11 C         138.9840  138.1456  166.6199 C.ar    1  UNL1        0.0369
     12 C         138.6090  137.6302  165.2621 C.ar    1  UNL1        0.0031
     13 C         138.6347  138.5499  164.0774 C.ar    1  UNL1        0.0002
     14 C         139.0354  139.9849  164.2505 C.ar    1  UNL1        0.0030
     15 C         139.4104  140.5004  165.6084 C.ar    1  UNL1        0.0339
     16 H         140.2628  142.9693  171.7145 H       1  UNL1        0.1233
     17 C         139.8881  144.6945  162.2273 C.ar    1  UNL1        0.0566
     18 C         138.5903  144.3977  162.9184 C.ar    1  UNL1        0.0047
     19 C         138.5646  143.4781  164.1031 C.ar    1  UNL1        0.0031
     20 C         139.8367  142.8551  164.5967 C.ar    1  UNL1        0.0336
     21 C         141.1346  143.1519  163.9056 C.ar    1  UNL1        0.1337
     22 O         142.4067  142.5290  164.3992 O.3     1  UNL1       -0.5055
     23 C         141.1602  144.0715  162.7209 C.ar    1  UNL1        0.0411
     24 H         142.3906  141.9545  165.1393 H       1  UNL1        0.2922
     25 N         140.1922  145.0667  159.6741 N.am    1  UNL1       -0.2761
     26 C         139.9137  145.6141  161.0426 C.2     1  UNL1        0.2491
     27 O         139.6609  147.0812  161.2264 O.2     1  UNL1       -0.2699
     28 C         141.3584  145.9251  157.5169 C.3     1  UNL1        0.0233
     29 C         140.2179  145.9864  158.4894 C.3     1  UNL1        0.0938
     30 C         140.4451  143.5996  159.4903 C.3     1  UNL1        0.0938
     31 C         139.3232  142.6903  159.0848 C.3     1  UNL1        0.0233
@<TRIPOS>BOND
     1    28    29    1
     2    29    25    1
     3    25    30    1
     4    30    31    1
     5    25    26   am
     6    26    27    2
     7    26    17    1
     8    17    18   ar
     9    18    19   ar
    10    19    20   ar
    11    20     1    1
    12     1     2    2
    13     2     3    1
    14     3     4    1
    15     4     5    1
    16     5     6    1
    17     6     7    1
    18     7     8    1
    19     3     9    1
    20     9    10    1
    21    10    11   ar
    22    11    12   ar
    23    12    13   ar
    24    13    14   ar
    25    14    15   ar
    26    20    21   ar
    27    21    22    1
    28    21    23   ar
    29    23    17   ar
    30    15     1    1
    31     8     3    1
    32    15    10   ar
    33     6    16    1
    34    22    24    1
@<TRIPOS>MOLECULE
*****
 31 34 0 0 0
SMALL
GASTEIGER

@<TRIPOS>ATOM
      1 C         141.5179  140.9307  166.3002 C.2     1  UNL1        0.0049
      2 C         142.1400  141.5535  167.5148 C.2     1  UNL1        0.0131
      3 C         141.4978  141.3797  168.8591 C.3     1  UNL1        0.1542
      4 C         142.7621  142.1764  168.7293 C.3     1  UNL1        0.0614
      5 C         143.3841  142.7992  169.9438 C.3     1  UNL1        0.0725
      6 N         142.7418  142.6253  171.2882 N.3     1  UNL1       -0.2972
      7 C         141.4776  141.8287  171.4180 C.3     1  UNL1        0.0725
      8 C         140.8555  141.2059  170.2035 C.3     1  UNL1        0.0614
      9 O         140.2334  140.5830  168.9889 O.3     1  UNL1       -0.4785
     10 C         139.6114  139.9602  167.7744 C.ar    1  UNL1        0.1386
     11 C         138.3471  139.1635  167.9042 C.ar    1  UNL1        0.0369
     12 C         137.7250  138.5407  166.6896 C.ar    1  UNL1        0.0031
     13 C         138.3673  138.7145  165.3453 C.ar    1  UNL1        0.0002
     14 C         139.6316  139.5111  165.2154 C.ar    1  UNL1        0.0030
     15 C         140.2537  140.1340  166.4300 C.ar    1  UNL1        0.0339
     16 H         142.5380  143.5607  171.6402 H       1  UNL1        0.1233
     17 C         143.4447  141.4521  162.2671 C.ar    1  UNL1        0.0566
     18 C         143.9368  140.3867  163.2013 C.ar    1  UNL1        0.0047
     19 C         143.2945  140.2129  164.5456 C.ar    1  UNL1        0.0031
     20 C         142.1602  141.1045  164.9558 C.ar    1  UNL1        0.0336
     21 C         141.6680  142.1700  164.0216 C.ar    1  UNL1        0.1337
     22 O         140.5337  143.0615  164.4318 O.3     1  UNL1       -0.5055
     23 C         142.3103  142.3438  162.6773 C.ar    1  UNL1        0.0411
     24 H         140.1325  142.9529  165.2716 H       1  UNL1        0.2922
     25 N         143.6091  140.8176  159.7531 N.am    1  UNL1       -0.2761
     26 C         144.0869  141.6260  160.9227 C.2     1  UNL1        0.2491
     27 O         145.2071  142.6083  160.7481 O.2     1  UNL1       -0.2699
     28 C         143.9673  142.2190  157.5949 C.3     1  UNL1        0.0233
     29 C         144.2513  140.9914  158.4088 C.3     1  UNL1        0.0938
     30 C         142.4889  139.8353  159.9278 C.3     1  UNL1        0.0938
     31 C         142.7916  138.3783  160.1163 C.3     1  UNL1        0.0233
@<TRIPOS>BOND
     1    28    29    1
     2    29    25    1
     3    25    30    1
     4    30    31    1
     5    25    26   am
     6    26    27    2
     7    26    17    1
     8    17    18   ar
     9    18    19   ar
    10    19    20   ar
    11    20     1    1
    12     1     2    2
    13     2     3    1
    14     3     4    1
    15     4     5    1
    16     5     6    1
    17     6     7    1
    18     7     8    1
    19     3     9    1
    20     9    10    1
    21    10    11   ar
    22    11    12   ar
    23    12    13   ar
    24    13    14   ar
    25    14    15   ar
    26    20    21   ar
    27    21    22    1
    28    21    23   ar
    29    23    17   ar
    30    15     1    1
    31     8     3    1
    32    15    10   ar
    33     6    16    1
    34    22    24    1
@<TRIPOS>MOLECULE
*****
 31 34 0 0 0
SMALL
GASTEIGER

@<TRIPOS>ATOM
      1 C         140.4116  142.3731  161.5045 C.2     1  UNL1        0.0049
      2 C         141.8870  142.1048  161.5412 C.2     1  UNL1        0.0131
      3 C         142.6992  142.5397  162.7248 C.3     1  UNL1        0.1542
      4 C         143.3623  141.8364  161.5778 C.3     1  UNL1        0.0614
      5 C         144.8377  141.5681  161.6145 C.3     1  UNL1        0.0725
      6 N         145.6499  142.0031  162.7982 N.3     1  UNL1       -0.2972
      7 C         144.9868  142.7064  163.9452 C.3     1  UNL1        0.0725
      8 C         143.5115  142.9747  163.9085 C.3     1  UNL1        0.0614
      9 O         142.0361  143.2431  163.8719 O.3     1  UNL1       -0.4785
     10 C         140.5608  143.5114  163.8352 C.ar    1  UNL1        0.1386
     11 C         139.8976  144.2147  164.9822 C.ar    1  UNL1        0.0369
     12 C         138.4223  144.4830  164.9456 C.ar    1  UNL1        0.0031
     13 C         137.6100  144.0480  163.7619 C.ar    1  UNL1        0.0002
     14 C         138.2731  143.3447  162.6149 C.ar    1  UNL1        0.0030
     15 C         139.7485  143.0764  162.6515 C.ar    1  UNL1        0.0339
     16 H         146.3717  142.6314  162.4451 H       1  UNL1        0.1233
     17 C         137.9749  141.0682  157.9535 C.ar    1  UNL1        0.0566
     18 C         138.3702  140.0688  159.0000 C.ar    1  UNL1        0.0047
     19 C         139.1825  140.5038  160.1836 C.ar    1  UNL1        0.0031
     20 C         139.5994  141.9381  160.3209 C.ar    1  UNL1        0.0336
     21 C         139.2041  142.9375  159.2744 C.ar    1  UNL1        0.1337
     22 O         139.6210  144.3719  159.4117 O.3     1  UNL1       -0.5055
     23 C         138.3918  142.5026  158.0908 C.ar    1  UNL1        0.0411
     24 H         140.1284  144.6436  160.1511 H       1  UNL1        0.2922
     25 N         137.8483  140.2035  155.5069 N.am    1  UNL1       -0.2761
     26 C         137.1627  140.6332  156.7699 C.2     1  UNL1        0.2491
     27 O         135.6647  140.6279  156.8493 O.2     1  UNL1       -0.2699
     28 C         136.6019  138.3382  154.1963 C.3     1  UNL1        0.0233
     29 C         137.0361  139.7685  154.3232 C.3     1  UNL1        0.0938
     30 C         139.3463  140.2087  155.4275 C.3     1  UNL1        0.0938
     31 C         140.1096  138.9260  155.5753 C.3     1  UNL1        0.0233
@<TRIPOS>BOND
     1    28    29    1
     2    29    25    1
     3    25    30    1
     4    30    31    1
     5    25    26   am
     6    26    27    2
     7    26    17    1
     8    17    18   ar
     9    18    19   ar
    10    19    20   ar
    11    20     1    1
    12     1     2    2
    13     2     3    1
    14     3     4    1
    15     4     5    1
    16     5     6    1
    17     6     7    1
    18     7     8    1
    19     3     9    1
    20     9    10    1
    21    10    11   ar
    22    11    12   ar
    23    12    13   ar
    24    13    14   ar
    25    14    15   ar
    26    20    21   ar
    27    21    22    1
    28    21    23   ar
    29    23    17   ar
    30    15     1    1
    31     8     3    1
    32    15    10   ar
    33     6    16    1
    34    22    24    1
@<TRIPOS>MOLECULE
*****
 31 34 0 0 0
SMALL
GASTEIGER

@<TRIPOS>ATOM
      1 C         141.9972  142.1777  162.5011 C.2     1  UNL1        0.0049
      2 C         142.6073  141.2516  161.4911 C.2     1  UNL1        0.0131
      3 C         142.5463  141.5893  160.0308 C.3     1  UNL1        0.1542
      4 C         143.2174  140.3256  160.4810 C.3     1  UNL1        0.0614
      5 C         143.8274  139.3996  159.4709 C.3     1  UNL1        0.0725
      6 N         143.7664  139.7373  158.0107 N.3     1  UNL1       -0.2972
      7 C         143.0953  141.0010  157.5605 C.3     1  UNL1        0.0725
      8 C         142.4852  141.9270  158.5706 C.3     1  UNL1        0.0614
      9 O         141.8751  142.8531  159.5807 O.3     1  UNL1       -0.4785
     10 C         141.2651  143.7791  160.5908 C.ar    1  UNL1        0.1386
     11 C         140.5939  145.0428  160.1407 C.ar    1  UNL1        0.0369
     12 C         139.9839  145.9688  161.1507 C.ar    1  UNL1        0.0031
     13 C         140.0449  145.6312  162.6110 C.ar    1  UNL1        0.0002
     14 C         140.7160  144.3675  163.0611 C.ar    1  UNL1        0.0030
     15 C         141.3261  143.4414  162.0510 C.ar    1  UNL1        0.0339
     16 H         143.2821  138.9666  157.5502 H       1  UNL1        0.1233
     17 C         142.1804  141.1647  166.8818 C.ar    1  UNL1        0.0566
     18 C         143.2304  142.0446  166.2710 C.ar    1  UNL1        0.0047
     19 C         143.1693  142.3823  164.8107 C.ar    1  UNL1        0.0031
     20 C         142.0583  141.8400  163.9614 C.ar    1  UNL1        0.0336
     21 C         141.0082  140.9601  164.5722 C.ar    1  UNL1        0.1337
     22 O         139.8972  140.4178  163.7229 O.3     1  UNL1       -0.5055
     23 C         141.0693  140.6224  166.0324 C.ar    1  UNL1        0.0411
     24 H         139.8590  140.6287  162.8107 H       1  UNL1        0.2922
     25 N         141.5446  141.6997  169.3434 N.am    1  UNL1       -0.2761
     26 C         142.2415  140.8270  168.3420 C.2     1  UNL1        0.2491
     27 O         142.9995  139.6166  168.8009 O.2     1  UNL1       -0.2699
     28 C         140.6378  140.3752  171.3863 C.3     1  UNL1        0.0233
     29 C         141.6057  141.3620  170.8036 C.3     1  UNL1        0.0938
     30 C         140.7866  142.9101  168.8846 C.3     1  UNL1        0.0938
     31 C         140.4086  143.9762  169.8696 C.3     1  UNL1        0.0233
@<TRIPOS>BOND
     1    28    29    1
     2    29    25    1
     3    25    30    1
     4    30    31    1
     5    25    26   am
     6    26    27    2
     7    26    17    1
     8    17    18   ar
     9    18    19   ar
    10    19    20   ar
    11    20     1    1
    12     1     2    2
    13     2     3    1
    14     3     4    1
    15     4     5    1
    16     5     6    1
    17     6     7    1
    18     7     8    1
    19     3     9    1
    20     9    10    1
    21    10    11   ar
    22    11    12   ar
    23    12    13   ar
    24    13    14   ar
    25    14    15   ar
    26    20    21   ar
    27    21    22    1
    28    21    23   ar
    29    23    17   ar
    30    15     1    1
    31     8     3    1
    32    15    10   ar
    33     6    16    1
    34    22    24    1
@<TRIPOS>MOLECULE
*****
 31 34 0 0 0
SMALL
GASTEIGER

@<TRIPOS>ATOM
      1 C         141.0641  140.2956  161.6057 C.2     1  UNL1        0.0049
      2 C         142.4108  140.9550  161.6501 C.2     1  UNL1        0.0131
      3 C         143.3531  140.6605  162.7794 C.3     1  UNL1        0.1542
      4 C         143.7573  141.6143  161.6946 C.3     1  UNL1        0.0614
      5 C         145.1039  142.2736  161.7390 C.3     1  UNL1        0.0725
      6 N         146.0462  141.9791  162.8683 N.3     1  UNL1       -0.2972
      7 C         145.6420  141.0254  163.9532 C.3     1  UNL1        0.0725
      8 C         144.2954  140.3661  163.9088 C.3     1  UNL1        0.0614
      9 O         142.9488  139.7068  163.8643 O.3     1  UNL1       -0.4785
     10 C         141.6022  139.0475  163.8199 C.ar    1  UNL1        0.1386
     11 C         141.1979  138.0937  164.9048 C.ar    1  UNL1        0.0369
     12 C         139.8513  137.4344  164.8603 C.ar    1  UNL1        0.0031
     13 C         138.9090  137.7288  163.7310 C.ar    1  UNL1        0.0002
     14 C         139.3132  138.6825  162.6462 C.ar    1  UNL1        0.0030
     15 C         140.6599  139.3419  162.6906 C.ar    1  UNL1        0.0339
     16 H         146.2511  142.8701  163.3208 H       1  UNL1        0.1233
     17 C         138.2372  141.1788  158.2178 C.ar    1  UNL1        0.0566
     18 C         138.2113  142.0249  159.4561 C.ar    1  UNL1        0.0047
     19 C         139.1536  141.7305  160.5854 C.ar    1  UNL1        0.0031
     20 C         140.1218  140.5900  160.4764 C.ar    1  UNL1        0.0336
     21 C         140.1477  139.7439  159.2380 C.ar    1  UNL1        0.1337
     22 O         141.1159  138.6034  159.1290 O.3     1  UNL1       -0.5055
     23 C         139.2054  140.0383  158.1087 C.ar    1  UNL1        0.0411
     24 H         141.7045  138.4195  159.8345 H       1  UNL1        0.2922
     25 N         137.5396  142.6535  156.1957 N.am    1  UNL1       -0.2761
     26 C         137.2948  141.4732  157.0885 C.2     1  UNL1        0.2491
     27 O         136.1077  140.5873  156.8519 O.2     1  UNL1       -0.2699
     28 C         136.9180  144.0376  154.0867 C.3     1  UNL1        0.0233
     29 C         136.5973  142.9479  155.0664 C.3     1  UNL1        0.0938
     30 C         138.7267  143.5394  156.4323 C.3     1  UNL1        0.0938
     31 C         140.0526  143.1960  155.8207 C.3     1  UNL1        0.0233
@<TRIPOS>BOND
     1    28    29    1
     2    29    25    1
     3    25    30    1
     4    30    31    1
     5    25    26   am
     6    26    27    2
     7    26    17    1
     8    17    18   ar
     9    18    19   ar
    10    19    20   ar
    11    20     1    1
    12     1     2    2
    13     2     3    1
    14     3     4    1
    15     4     5    1
    16     5     6    1
    17     6     7    1
    18     7     8    1
    19     3     9    1
    20     9    10    1
    21    10    11   ar
    22    11    12   ar
    23    12    13   ar
    24    13    14   ar
    25    14    15   ar
    26    20    21   ar
    27    21    22    1
    28    21    23   ar
    29    23    17   ar
    30    15     1    1
    31     8     3    1
    32    15    10   ar
    33     6    16    1
    34    22    24    1
@<TRIPOS>MOLECULE
*****
 31 34 0 0 0
SMALL
GASTEIGER

@<TRIPOS>ATOM
      1 C         140.7562  142.7246  161.1940 C.2     1  UNL1        0.0049
      2 C         141.9399  141.8158  161.3463 C.2     1  UNL1        0.0131
      3 C         142.1838  141.1138  162.6493 C.3     1  UNL1        0.1542
      4 C         143.1235  140.9070  161.4986 C.3     1  UNL1        0.0614
      5 C         144.3071  139.9982  161.6508 C.3     1  UNL1        0.0725
      6 N         144.5510  139.2963  162.9538 N.3     1  UNL1       -0.2972
      7 C         143.6113  139.5031  164.1045 C.3     1  UNL1        0.0725
      8 C         142.4277  140.4119  163.9523 C.3     1  UNL1        0.0614
      9 O         141.2441  141.3207  163.8000 O.3     1  UNL1       -0.4785
     10 C         140.0605  142.2295  163.6478 C.ar    1  UNL1        0.1386
     11 C         139.1207  142.4363  164.7985 C.ar    1  UNL1        0.0369
     12 C         137.9372  143.3451  164.6462 C.ar    1  UNL1        0.0031
     13 C         137.6932  144.0470  163.3432 C.ar    1  UNL1        0.0002
     14 C         138.6329  143.8402  162.1925 C.ar    1  UNL1        0.0030
     15 C         139.8166  142.9314  162.3448 C.ar    1  UNL1        0.0339
     16 H         145.4761  139.5828  163.2740 H       1  UNL1        0.1233
     17 C         140.0245  144.8304  157.2851 C.ar    1  UNL1        0.0566
     18 C         139.5396  143.4246  157.4819 C.ar    1  UNL1        0.0047
     19 C         139.7836  142.7227  158.7849 C.ar    1  UNL1        0.0031
     20 C         140.5123  143.4265  159.8910 C.ar    1  UNL1        0.0336
     21 C         140.9972  144.8323  159.6942 C.ar    1  UNL1        0.1337
     22 O         141.7259  145.5361  160.8003 O.3     1  UNL1       -0.5055
     23 C         140.7533  145.5342  158.3912 C.ar    1  UNL1        0.0411
     24 H         141.8783  145.0976  161.6143 H       1  UNL1        0.2922
     25 N         140.8992  145.6930  154.9958 N.am    1  UNL1       -0.2761
     26 C         139.7806  145.5323  155.9821 C.2     1  UNL1        0.2491
     27 O         138.4179  146.0735  155.6653 O.2     1  UNL1       -0.2699
     28 C         140.5135  147.8879  153.6603 C.3     1  UNL1        0.0233
     29 C         140.6553  146.3950  153.6928 C.3     1  UNL1        0.0938
     30 C         142.2619  145.1518  155.3126 C.3     1  UNL1        0.0938
     31 C         142.6385  143.7666  154.8775 C.3     1  UNL1        0.0233
@<TRIPOS>BOND
     1    28    29    1
     2    29    25    1
     3    25    30    1
     4    30    31    1
     5    25    26   am
     6    26    27    2
     7    26    17    1
     8    17    18   ar
     9    18    19   ar
    10    19    20   ar
    11    20     1    1
    12     1     2    2
    13     2     3    1
    14     3     4    1
    15     4     5    1
    16     5     6    1
    17     6     7    1
    18     7     8    1
    19     3     9    1
    20     9    10    1
    21    10    11   ar
    22    11    12   ar
    23    12    13   ar
    24    13    14   ar
    25    14    15   ar
    26    20    21   ar
    27    21    22    1
    28    21    23   ar
    29    23    17   ar
    30    15     1    1
    31     8     3    1
    32    15    10   ar
    33     6    16    1
    34    22    24    1
@<TRIPOS>MOLECULE
*****
 31 34 0 0 0
SMALL
GASTEIGER

@<TRIPOS>ATOM
      1 C         140.2768  140.3546  162.4651 C.2     1  UNL1        0.0049
      2 C         140.2899  141.8537  162.5177 C.2     1  UNL1        0.0131
      3 C         139.6798  142.5685  163.6868 C.3     1  UNL1        0.1542
      4 C         140.3029  143.3527  162.5703 C.3     1  UNL1        0.0614
      5 C         140.3160  144.8517  162.6228 C.3     1  UNL1        0.0725
      6 N         139.7059  145.5665  163.7920 N.3     1  UNL1       -0.2972
      7 C         139.0828  144.7823  164.9086 C.3     1  UNL1        0.0725
      8 C         139.0698  143.2833  164.8560 C.3     1  UNL1        0.0614
      9 O         139.0567  141.7842  164.8034 O.3     1  UNL1       -0.4785
     10 C         139.0437  140.2853  164.7509 C.ar    1  UNL1        0.1386
     11 C         138.4205  139.5010  165.8675 C.ar    1  UNL1        0.0369
     12 C         138.4075  138.0020  165.8149 C.ar    1  UNL1        0.0031
     13 C         139.0175  137.2872  164.6457 C.ar    1  UNL1        0.0002
     14 C         139.6406  138.0714  163.5292 C.ar    1  UNL1        0.0030
     15 C         139.6537  139.5704  163.5817 C.ar    1  UNL1        0.0339
     16 H         138.9780  146.1752  163.4178 H       1  UNL1        0.1233
     17 C         142.1069  138.2102  158.9577 C.ar    1  UNL1        0.0566
     18 C         142.9540  138.5695  160.1423 C.ar    1  UNL1        0.0047
     19 C         142.3440  139.2843  161.3114 C.ar    1  UNL1        0.0031
     20 C         140.8868  139.6398  161.2960 C.ar    1  UNL1        0.0336
     21 C         140.0396  139.2805  160.1114 C.ar    1  UNL1        0.1337
     22 O         138.5825  139.6360  160.0960 O.3     1  UNL1       -0.5055
     23 C         140.6496  138.5657  158.9422 C.ar    1  UNL1        0.0411
     24 H         138.2014  140.0825  160.8263 H       1  UNL1        0.2922
     25 N         143.2125  138.2762  156.6075 N.am    1  UNL1       -0.2761
     26 C         142.7169  137.4954  157.7885 C.2     1  UNL1        0.2491
     27 O         142.8314  135.9998  157.8005 O.2     1  UNL1       -0.2699
     28 C         142.9407  136.9319  154.4009 C.3     1  UNL1        0.0233
     29 C         143.8225  137.5613  155.4384 C.3     1  UNL1        0.0938
     30 C         143.0980  139.7718  156.5956 C.3     1  UNL1        0.0938
     31 C         144.2437  140.6155  157.0704 C.3     1  UNL1        0.0233
@<TRIPOS>BOND
     1    28    29    1
     2    29    25    1
     3    25    30    1
     4    30    31    1
     5    25    26   am
     6    26    27    2
     7    26    17    1
     8    17    18   ar
     9    18    19   ar
    10    19    20   ar
    11    20     1    1
    12     1     2    2
    13     2     3    1
    14     3     4    1
    15     4     5    1
    16     5     6    1
    17     6     7    1
    18     7     8    1
    19     3     9    1
    20     9    10    1
    21    10    11   ar
    22    11    12   ar
    23    12    13   ar
    24    13    14   ar
    25    14    15   ar
    26    20    21   ar
    27    21    22    1
    28    21    23   ar
    29    23    17   ar
    30    15     1    1
    31     8     3    1
    32    15    10   ar
    33     6    16    1
    34    22    24    1
@<TRIPOS>MOLECULE
*****
 31 34 0 0 0
SMALL
GASTEIGER

@<TRIPOS>ATOM
      1 C         142.0290  141.5369  166.3593 C.2     1  UNL1        0.0049
      2 C         141.3827  142.2505  167.5096 C.2     1  UNL1        0.0131
      3 C         141.4086  141.6412  168.8801 C.3     1  UNL1        0.1542
      4 C         140.7365  142.9640  168.6599 C.3     1  UNL1        0.0614
      5 C         140.0903  143.6775  169.8103 C.3     1  UNL1        0.0725
      6 N         140.1162  143.0682  171.1807 N.3     1  UNL1       -0.2972
      7 C         140.7883  141.7454  171.4008 C.3     1  UNL1        0.0725
      8 C         141.4345  141.0319  170.2505 C.3     1  UNL1        0.0614
      9 O         142.0808  140.3184  169.1001 O.3     1  UNL1       -0.4785
     10 C         142.7270  139.6049  167.9498 C.ar    1  UNL1        0.1386
     11 C         143.3992  138.2820  168.1699 C.ar    1  UNL1        0.0369
     12 C         144.0454  137.5685  167.0196 C.ar    1  UNL1        0.0031
     13 C         144.0195  138.1778  165.6491 C.ar    1  UNL1        0.0002
     14 C         143.3474  139.5006  165.4290 C.ar    1  UNL1        0.0030
     15 C         142.7011  140.2141  166.5794 C.ar    1  UNL1        0.0339
     16 H         139.1450  142.9571  171.4719 H       1  UNL1        0.1233
     17 C         141.9513  143.3647  162.2479 C.ar    1  UNL1        0.0566
     18 C         140.8902  142.3852  162.6534 C.ar    1  UNL1        0.0047
     19 C         140.9161  141.7759  164.0238 C.ar    1  UNL1        0.0031
     20 C         142.0031  142.1462  164.9888 C.ar    1  UNL1        0.0336
     21 C         143.0643  143.1258  164.5834 C.ar    1  UNL1        0.1337
     22 O         144.1514  143.4960  165.5483 O.3     1  UNL1       -0.5055
     23 C         143.0384  143.7350  163.2129 C.ar    1  UNL1        0.0411
     24 H         144.1675  143.1154  166.4044 H       1  UNL1        0.2922
     25 N         141.1148  145.2098  160.6213 N.am    1  UNL1       -0.2761
     26 C         141.9254  143.9740  160.8775 C.2     1  UNL1        0.2491
     27 O         142.7102  143.3474  159.7632 O.2     1  UNL1       -0.2699
     28 C         140.1772  145.2605  158.1989 C.3     1  UNL1        0.0233
     29 C         141.0889  145.8191  159.2509 C.3     1  UNL1        0.0938
     30 C         140.3301  145.8364  161.7356 C.3     1  UNL1        0.0938
     31 C         138.9929  145.2753  162.1191 C.3     1  UNL1        0.0233
@<TRIPOS>BOND
     1    28    29    1
     2    29    25    1
     3    25    30    1
     4    30    31    1
     5    25    26   am
     6    26    27    2
     7    26    17    1
     8    17    18   ar
     9    18    19   ar
    10    19    20   ar
    11    20     1    1
    12     1     2    2
    13     2     3    1
    14     3     4    1
    15     4     5    1
    16     5     6    1
    17     6     7    1
    18     7     8    1
    19     3     9    1
    20     9    10    1
    21    10    11   ar
    22    11    12   ar
    23    12    13   ar
    24    13    14   ar
    25    14    15   ar
    26    20    21   ar
    27    21    22    1
    28    21    23   ar
    29    23    17   ar
    30    15     1    1
    31     8     3    1
    32    15    10   ar
    33     6    16    1
    34    22    24    1
