@<TRIPOS>MOLECULE
*****
 29 33 0 0 0
SMALL
GASTEIGER

@<TRIPOS>ATOM
      1 N         142.7831  139.1148  162.5626 N.ar    1  UNL1       -0.2715
      2 C         143.6929  139.9588  161.7201 C.ar    1  UNL1        0.0861
      3 C         143.8508  139.6623  160.2582 C.ar    1  UNL1        0.0561
      4 C         143.0988  138.5217  159.6388 C.ar    1  UNL1        0.1453
      5 C         142.1889  137.6777  160.4814 C.ar    1  UNL1        0.0980
      6 C         142.0311  137.9743  161.9433 C.ar    1  UNL1        0.2679
      7 O         141.1213  137.1302  162.7859 O.2     1  UNL1       -0.2665
      8 C         140.1005  143.0607  166.0303 C.3     1  UNL1        0.0517
      9 C         140.9052  141.9626  166.6599 C.ar    1  UNL1        0.0567
     10 C         141.1093  141.7512  168.1308 C.ar    1  UNL1        0.0722
     11 N         141.9773  140.5409  168.3091 N.ar    1  UNL1       -0.2311
     12 C         142.3097  140.0043  166.9483 C.ar    1  UNL1        0.1472
     13 C         143.1301  138.8292  166.5057 C.ar    1  UNL1        0.0389
     14 C         143.2879  138.5327  165.0439 C.ar    1  UNL1        0.0222
     15 C         142.6253  139.4114  164.0246 C.ar    1  UNL1        0.0845
     16 C         141.8049  140.5865  164.4672 C.ar    1  UNL1        0.0988
     17 N         141.6471  140.8830  165.9291 N.ar    1  UNL1       -0.2915
     18 C         140.5445  142.6008  169.2304 C.3     1  UNL1        0.0415
     19 C         139.7585  142.7263  170.5018 C.3     1  UNL1        0.0063
     20 C         140.3522  143.9470  169.8635 C.3     1  UNL1        0.0063
     21 O         143.2566  138.2252  158.1769 O.3     1  UNL1       -0.4704
     22 C         142.1137  137.6375  157.4033 C.3     1  UNL1        0.2320
     23 C         142.3043  136.3627  156.6359 C.ar    1  UNL1        0.0212
     24 C         143.5002  135.4979  156.9035 C.ar    1  UNL1        0.0002
     25 C         143.6907  134.2232  156.1361 C.ar    1  UNL1        0.0112
     26 C         142.6853  133.8134  155.1012 C.ar    1  UNL1        0.0577
     27 CL        142.8758  132.5387  154.3338 Cl      1  UNL1       -0.0822
     28 C         141.4893  134.6783  154.8336 C.ar    1  UNL1        0.0112
     29 C         141.2988  135.9529  155.6010 C.ar    1  UNL1        0.0002
@<TRIPOS>BOND
     1     8     9    1
     2     9    10   ar
     3    10    18    1
     4    18    19    1
     5    19    20    1
     6    10    11   ar
     7    11    12   ar
     8    12    13   ar
     9    13    14   ar
    10    14    15   ar
    11    15     1    1
    12     1     2   ar
    13     2     3   ar
    14     3     4   ar
    15     4    21    1
    16    21    22    1
    17    22    23    1
    18    23    24   ar
    19    24    25   ar
    20    25    26   ar
    21    26    27    1
    22    26    28   ar
    23    28    29   ar
    24     4     5   ar
    25     5     6   ar
    26     6     7    2
    27    15    16   ar
    28    16    17   ar
    29    17     9   ar
    30    20    18    1
    31    17    12   ar
    32     6     1   ar
    33    29    23   ar
@<TRIPOS>MOLECULE
*****
 29 33 0 0 0
SMALL
GASTEIGER

@<TRIPOS>ATOM
      1 N         141.4245  138.5071  161.8162 N.ar    1  UNL1       -0.2715
      2 C         142.7865  137.8905  161.6945 C.ar    1  UNL1        0.0861
      3 C         143.3674  137.6165  160.3389 C.ar    1  UNL1        0.0561
      4 C         142.5863  137.9591  159.1051 C.ar    1  UNL1        0.1453
      5 C         141.2242  138.5758  159.2268 C.ar    1  UNL1        0.0980
      6 C         140.6434  138.8497  160.5823 C.ar    1  UNL1        0.2679
      7 O         139.2814  139.4663  160.7040 O.2     1  UNL1       -0.2665
      8 C         142.1016  142.3418  166.2465 C.3     1  UNL1        0.0517
      9 C         141.0745  141.2557  166.3710 C.ar    1  UNL1        0.0567
     10 C         140.1669  141.0307  167.5439 C.ar    1  UNL1        0.0722
     11 N         139.3062  139.8398  167.2422 N.ar    1  UNL1       -0.2311
     12 C         139.6818  139.3289  165.8828 C.ar    1  UNL1        0.1472
     13 C         139.1698  138.1799  165.0657 C.ar    1  UNL1        0.0389
     14 C         139.7507  137.9060  163.7102 C.ar    1  UNL1        0.0222
     15 C         140.8436  138.7810  163.1718 C.ar    1  UNL1        0.0845
     16 C         141.3556  139.9300  163.9889 C.ar    1  UNL1        0.0988
     17 N         140.7746  140.2040  165.3444 N.ar    1  UNL1       -0.2915
     18 C         140.1271  141.8522  168.7983 C.3     1  UNL1        0.0415
     19 C         140.3636  143.1526  169.5075 C.3     1  UNL1        0.0063
     20 C         139.8217  141.9747  170.2617 C.3     1  UNL1        0.0063
     21 O         143.1671  137.6852  157.7495 O.3     1  UNL1       -0.4704
     22 C         142.3174  137.0632  156.6813 C.3     1  UNL1        0.2320
     23 C         142.3286  135.5761  156.4851 C.ar    1  UNL1        0.0212
     24 C         141.4015  134.9440  155.4898 C.ar    1  UNL1        0.0002
     25 C         141.4127  133.4569  155.2936 C.ar    1  UNL1        0.0112
     26 C         142.3510  132.6020  156.0928 C.ar    1  UNL1        0.0577
     27 CL        142.3621  131.1149  155.8966 Cl      1  UNL1       -0.0822
     28 C         143.2781  133.2342  157.0881 C.ar    1  UNL1        0.0112
     29 C         143.2669  134.7212  157.2843 C.ar    1  UNL1        0.0002
@<TRIPOS>BOND
     1     8     9    1
     2     9    10   ar
     3    10    18    1
     4    18    19    1
     5    19    20    1
     6    10    11   ar
     7    11    12   ar
     8    12    13   ar
     9    13    14   ar
    10    14    15   ar
    11    15     1    1
    12     1     2   ar
    13     2     3   ar
    14     3     4   ar
    15     4    21    1
    16    21    22    1
    17    22    23    1
    18    23    24   ar
    19    24    25   ar
    20    25    26   ar
    21    26    27    1
    22    26    28   ar
    23    28    29   ar
    24     4     5   ar
    25     5     6   ar
    26     6     7    2
    27    15    16   ar
    28    16    17   ar
    29    17     9   ar
    30    20    18    1
    31    17    12   ar
    32     6     1   ar
    33    29    23   ar
@<TRIPOS>MOLECULE
*****
 29 33 0 0 0
SMALL
GASTEIGER

@<TRIPOS>ATOM
      1 N         140.7182  138.5111  161.4866 N.ar    1  UNL1       -0.2715
      2 C         139.6913  138.6801  160.4063 C.ar    1  UNL1        0.0861
      3 C         140.0691  138.4602  158.9714 C.ar    1  UNL1        0.0561
      4 C         141.4738  138.0714  158.6168 C.ar    1  UNL1        0.1453
      5 C         142.5007  137.9024  159.6971 C.ar    1  UNL1        0.0980
      6 C         142.1228  138.1223  161.1320 C.ar    1  UNL1        0.2679
      7 O         143.1497  137.9534  162.2123 O.2     1  UNL1       -0.2665
      8 C         141.5661  142.5079  165.7408 C.3     1  UNL1        0.0517
      9 C         140.7440  141.2887  166.0372 C.ar    1  UNL1        0.0567
     10 C         140.0897  140.9636  167.3472 C.ar    1  UNL1        0.0722
     11 N         139.3732  139.6546  167.1952 N.ar    1  UNL1       -0.2311
     12 C         139.5847  139.1707  165.7912 C.ar    1  UNL1        0.1472
     13 C         139.1153  137.9409  165.0721 C.ar    1  UNL1        0.0389
     14 C         139.4932  137.7211  163.6372 C.ar    1  UNL1        0.0222
     15 C         140.3404  138.7310  162.9215 C.ar    1  UNL1        0.0845
     16 C         140.8097  139.9608  163.6407 C.ar    1  UNL1        0.0988
     17 N         140.4319  140.1806  165.0755 N.ar    1  UNL1       -0.2915
     18 C         140.1426  141.8006  168.5909 C.3     1  UNL1        0.0415
     19 C         140.4031  143.1173  169.2605 C.3     1  UNL1        0.0063
     20 C         139.9736  141.9334  170.0754 C.3     1  UNL1        0.0063
     21 O         141.8516  137.8515  157.1819 O.3     1  UNL1       -0.4704
     22 C         142.9798  136.9251  156.8370 C.3     1  UNL1        0.2320
     23 C         142.6986  135.4861  156.5204 C.ar    1  UNL1        0.0212
     24 C         143.4367  134.4004  157.2460 C.ar    1  UNL1        0.0002
     25 C         143.1555  132.9615  156.9295 C.ar    1  UNL1        0.0112
     26 C         142.1360  132.6082  155.8874 C.ar    1  UNL1        0.0577
     27 CL        141.8548  131.1691  155.5709 Cl      1  UNL1       -0.0822
     28 C         141.3979  133.6938  155.1618 C.ar    1  UNL1        0.0112
     29 C         141.6791  135.1327  155.4784 C.ar    1  UNL1        0.0002
@<TRIPOS>BOND
     1     8     9    1
     2     9    10   ar
     3    10    18    1
     4    18    19    1
     5    19    20    1
     6    10    11   ar
     7    11    12   ar
     8    12    13   ar
     9    13    14   ar
    10    14    15   ar
    11    15     1    1
    12     1     2   ar
    13     2     3   ar
    14     3     4   ar
    15     4    21    1
    16    21    22    1
    17    22    23    1
    18    23    24   ar
    19    24    25   ar
    20    25    26   ar
    21    26    27    1
    22    26    28   ar
    23    28    29   ar
    24     4     5   ar
    25     5     6   ar
    26     6     7    2
    27    15    16   ar
    28    16    17   ar
    29    17     9   ar
    30    20    18    1
    31    17    12   ar
    32     6     1   ar
    33    29    23   ar
@<TRIPOS>MOLECULE
*****
 29 33 0 0 0
SMALL
GASTEIGER

@<TRIPOS>ATOM
      1 N         142.7510  139.1434  162.7945 N.ar    1  UNL1       -0.2715
      2 C         141.7138  138.3312  162.0772 C.ar    1  UNL1        0.0861
      3 C         141.8852  138.0130  160.6213 C.ar    1  UNL1        0.0561
      4 C         143.0938  138.5070  159.8829 C.ar    1  UNL1        0.1453
      5 C         144.1310  139.3192  160.6003 C.ar    1  UNL1        0.0980
      6 C         143.9596  139.6374  162.0560 C.ar    1  UNL1        0.2679
      7 O         144.9968  140.4496  162.7734 O.2     1  UNL1       -0.2665
      8 C         140.1445  143.2144  166.1745 C.3     1  UNL1        0.0517
      9 C         140.9024  142.0977  166.8291 C.ar    1  UNL1        0.0567
     10 C         141.0758  141.8966  168.3054 C.ar    1  UNL1        0.0722
     11 N         141.9006  140.6607  168.5111 N.ar    1  UNL1       -0.2311
     12 C         142.2369  140.0980  167.1619 C.ar    1  UNL1        0.1472
     13 C         143.0252  138.8917  166.7456 C.ar    1  UNL1        0.0389
     14 C         143.1965  138.5735  165.2898 C.ar    1  UNL1        0.0222
     15 C         142.5796  139.4616  164.2503 C.ar    1  UNL1        0.0845
     16 C         141.7913  140.6680  164.6666 C.ar    1  UNL1        0.0988
     17 N         141.6200  140.9862  166.1224 N.ar    1  UNL1       -0.2915
     18 C         140.5218  142.7768  169.3863 C.3     1  UNL1        0.0415
     19 C         140.3416  144.1394  169.9871 C.3     1  UNL1        0.0063
     20 C         139.7424  142.9388  170.6576 C.3     1  UNL1        0.0063
     21 O         143.2652  138.1888  158.4271 O.3     1  UNL1       -0.4704
     22 C         143.0116  139.2457  157.3935 C.3     1  UNL1        0.2320
     23 C         144.1311  140.1350  156.9397 C.ar    1  UNL1        0.0212
     24 C         144.9093  139.7902  155.7046 C.ar    1  UNL1        0.0002
     25 C         146.0288  140.6795  155.2509 C.ar    1  UNL1        0.0112
     26 C         146.3700  141.9136  156.0322 C.ar    1  UNL1        0.0577
     27 CL        147.4895  142.8029  155.5784 Cl      1  UNL1       -0.0822
     28 C         145.5918  142.2585  157.2673 C.ar    1  UNL1        0.0112
     29 C         144.4723  141.3692  157.7210 C.ar    1  UNL1        0.0002
@<TRIPOS>BOND
     1     8     9    1
     2     9    10   ar
     3    10    18    1
     4    18    19    1
     5    19    20    1
     6    10    11   ar
     7    11    12   ar
     8    12    13   ar
     9    13    14   ar
    10    14    15   ar
    11    15     1    1
    12     1     2   ar
    13     2     3   ar
    14     3     4   ar
    15     4    21    1
    16    21    22    1
    17    22    23    1
    18    23    24   ar
    19    24    25   ar
    20    25    26   ar
    21    26    27    1
    22    26    28   ar
    23    28    29   ar
    24     4     5   ar
    25     5     6   ar
    26     6     7    2
    27    15    16   ar
    28    16    17   ar
    29    17     9   ar
    30    20    18    1
    31    17    12   ar
    32     6     1   ar
    33    29    23   ar
@<TRIPOS>MOLECULE
*****
 29 33 0 0 0
SMALL
GASTEIGER

@<TRIPOS>ATOM
      1 N         141.4949  141.9468  164.3834 N.ar    1  UNL1       -0.2715
      2 C         140.6550  140.7358  164.6626 C.ar    1  UNL1        0.0861
      3 C         141.1403  139.6918  165.6242 C.ar    1  UNL1        0.0561
      4 C         142.4657  139.8589  166.3065 C.ar    1  UNL1        0.1453
      5 C         143.3056  141.0700  166.0273 C.ar    1  UNL1        0.0980
      6 C         142.8203  142.1139  165.0657 C.ar    1  UNL1        0.2679
      7 O         143.6602  143.3249  164.7865 O.2     1  UNL1       -0.2665
      8 C         141.9316  143.2484  158.6469 C.3     1  UNL1        0.0517
      9 C         141.1222  144.1421  159.5393 C.ar    1  UNL1        0.0567
     10 C         140.3842  145.3772  159.1150 C.ar    1  UNL1        0.0722
     11 N         139.7147  145.9560  160.3260 N.ar    1  UNL1       -0.2311
     12 C         140.0389  145.0787  161.4988 C.ar    1  UNL1        0.1472
     13 C         139.6543  145.1558  162.9466 C.ar    1  UNL1        0.0389
     14 C         140.1397  144.1119  163.9081 C.ar    1  UNL1        0.0222
     15 C         141.0096  142.9908  163.4218 C.ar    1  UNL1        0.0845
     16 C         141.3941  142.9137  161.9740 C.ar    1  UNL1        0.0988
     17 N         140.9088  143.9576  161.0125 N.ar    1  UNL1       -0.2915
     18 C         140.3260  145.9354  157.7239 C.3     1  UNL1        0.0415
     19 C         139.6003  146.7108  156.6647 C.3     1  UNL1        0.0063
     20 C         140.9510  146.1268  156.3739 C.3     1  UNL1        0.0063
     21 O         142.9510  138.8150  167.2681 O.3     1  UNL1       -0.4704
     22 C         142.8165  139.0358  168.7456 C.3     1  UNL1        0.2320
     23 C         141.9858  140.1734  169.2614 C.ar    1  UNL1        0.0212
     24 C         140.4947  140.0344  169.3475 C.ar    1  UNL1        0.0002
     25 C         139.6641  141.1719  169.8633 C.ar    1  UNL1        0.0112
     26 C         140.3245  142.4484  170.2929 C.ar    1  UNL1        0.0577
     27 CL        139.4938  143.5859  170.8087 Cl      1  UNL1       -0.0822
     28 C         141.8155  142.5873  170.2067 C.ar    1  UNL1        0.0112
     29 C         142.6462  141.4498  169.6910 C.ar    1  UNL1        0.0002
@<TRIPOS>BOND
     1     8     9    1
     2     9    10   ar
     3    10    18    1
     4    18    19    1
     5    19    20    1
     6    10    11   ar
     7    11    12   ar
     8    12    13   ar
     9    13    14   ar
    10    14    15   ar
    11    15     1    1
    12     1     2   ar
    13     2     3   ar
    14     3     4   ar
    15     4    21    1
    16    21    22    1
    17    22    23    1
    18    23    24   ar
    19    24    25   ar
    20    25    26   ar
    21    26    27    1
    22    26    28   ar
    23    28    29   ar
    24     4     5   ar
    25     5     6   ar
    26     6     7    2
    27    15    16   ar
    28    16    17   ar
    29    17     9   ar
    30    20    18    1
    31    17    12   ar
    32     6     1   ar
    33    29    23   ar
@<TRIPOS>MOLECULE
*****
 29 33 0 0 0
SMALL
GASTEIGER

@<TRIPOS>ATOM
      1 N         141.4153  144.4330  160.4907 N.ar    1  UNL1       -0.2715
      2 C         142.3581  143.9045  159.4506 C.ar    1  UNL1        0.0861
      3 C         142.2638  144.3928  158.0354 C.ar    1  UNL1        0.0561
      4 C         141.2267  145.4095  157.6603 C.ar    1  UNL1        0.1453
      5 C         140.2839  145.9380  158.7005 C.ar    1  UNL1        0.0980
      6 C         140.3782  145.4497  160.1156 C.ar    1  UNL1        0.2679
      7 O         139.4353  145.9782  161.1558 O.2     1  UNL1       -0.2665
      8 C         138.5505  140.7799  164.1293 C.3     1  UNL1        0.0517
      9 C         139.7587  141.5129  164.6322 C.ar    1  UNL1        0.0567
     10 C         140.3391  141.4139  166.0119 C.ar    1  UNL1        0.0722
     11 N         141.5377  142.3134  166.0761 N.ar    1  UNL1       -0.2311
     12 C         141.6982  142.9683  164.7362 C.ar    1  UNL1        0.1472
     13 C         142.7034  143.9513  164.2134 C.ar    1  UNL1        0.0389
     14 C         142.6090  144.4395  162.7983 C.ar    1  UNL1        0.0222
     15 C         141.5095  143.9447  161.9059 C.ar    1  UNL1        0.0845
     16 C         140.5043  142.9618  162.4287 C.ar    1  UNL1        0.0988
     17 N         140.5986  142.4736  163.8438 N.ar    1  UNL1       -0.2915
     18 C         139.8132  140.5645  167.1308 C.3     1  UNL1        0.0415
     19 C         139.8845  140.1048  168.5568 C.3     1  UNL1        0.0063
     20 C         138.8309  139.5530  167.6427 C.3     1  UNL1        0.0063
     21 O         141.1324  145.8978  156.2452 O.3     1  UNL1       -0.4704
     22 C         139.8021  146.2911  155.6746 C.3     1  UNL1        0.2320
     23 C         139.4824  147.7388  155.4461 C.ar    1  UNL1        0.0212
     24 C         138.6905  148.5020  156.4661 C.ar    1  UNL1        0.0002
     25 C         138.3708  149.9496  156.2376 C.ar    1  UNL1        0.0112
     26 C         138.8431  150.6340  154.9891 C.ar    1  UNL1        0.0577
     27 CL        138.5234  152.0816  154.7607 Cl      1  UNL1       -0.0822
     28 C         139.6350  149.8707  153.9692 C.ar    1  UNL1        0.0112
     29 C         139.9546  148.4232  154.1977 C.ar    1  UNL1        0.0002
@<TRIPOS>BOND
     1     8     9    1
     2     9    10   ar
     3    10    18    1
     4    18    19    1
     5    19    20    1
     6    10    11   ar
     7    11    12   ar
     8    12    13   ar
     9    13    14   ar
    10    14    15   ar
    11    15     1    1
    12     1     2   ar
    13     2     3   ar
    14     3     4   ar
    15     4    21    1
    16    21    22    1
    17    22    23    1
    18    23    24   ar
    19    24    25   ar
    20    25    26   ar
    21    26    27    1
    22    26    28   ar
    23    28    29   ar
    24     4     5   ar
    25     5     6   ar
    26     6     7    2
    27    15    16   ar
    28    16    17   ar
    29    17     9   ar
    30    20    18    1
    31    17    12   ar
    32     6     1   ar
    33    29    23   ar
@<TRIPOS>MOLECULE
*****
 29 33 0 0 0
SMALL
GASTEIGER

@<TRIPOS>ATOM
      1 N         141.8171  139.4934  161.4237 N.ar    1  UNL1       -0.2715
      2 C         140.8141  139.9790  160.4196 C.ar    1  UNL1        0.0861
      3 C         140.7939  139.3963  159.0375 C.ar    1  UNL1        0.0561
      4 C         141.7768  138.3280  158.6596 C.ar    1  UNL1        0.1453
      5 C         142.7798  137.8424  159.6637 C.ar    1  UNL1        0.0980
      6 C         142.7999  138.4251  161.0458 C.ar    1  UNL1        0.2679
      7 O         143.8029  137.9395  162.0499 O.2     1  UNL1       -0.2665
      8 C         138.7257  139.1483  166.4353 C.3     1  UNL1        0.0517
      9 C         139.9213  140.0523  166.3752 C.ar    1  UNL1        0.0567
     10 C         140.4351  140.9100  167.4933 C.ar    1  UNL1        0.0722
     11 N         141.6442  141.6450  166.9956 N.ar    1  UNL1       -0.2311
     12 C         141.8777  141.2415  165.5699 C.ar    1  UNL1        0.1472
     13 C         142.9224  141.6432  164.5712 C.ar    1  UNL1        0.0389
     14 C         142.9021  141.0605  163.1892 C.ar    1  UNL1        0.0222
     15 C         141.8373  140.0761  162.8058 C.ar    1  UNL1        0.0845
     16 C         140.7926  139.6744  163.8044 C.ar    1  UNL1        0.0988
     17 N         140.8128  140.2571  165.1864 N.ar    1  UNL1       -0.2915
     18 C         139.8436  141.0145  168.8678 C.3     1  UNL1        0.0415
     19 C         138.9562  140.4655  169.9453 C.3     1  UNL1        0.0063
     20 C         139.7065  141.7446  170.1709 C.3     1  UNL1        0.0063
     21 O         141.7566  137.7453  157.2776 O.3     1  UNL1       -0.4704
     22 C         142.8921  136.8838  156.8103 C.3     1  UNL1        0.2320
     23 C         142.6632  135.4279  156.5308 C.ar    1  UNL1        0.0212
     24 C         141.7069  135.0125  155.4524 C.ar    1  UNL1        0.0002
     25 C         141.4781  133.5567  155.1729 C.ar    1  UNL1        0.0112
     26 C         142.2056  132.5162  155.9718 C.ar    1  UNL1        0.0577
     27 CL        141.9767  131.0603  155.6923 Cl      1  UNL1       -0.0822
     28 C         143.1619  132.9316  157.0502 C.ar    1  UNL1        0.0112
     29 C         143.3907  134.3874  157.3297 C.ar    1  UNL1        0.0002
@<TRIPOS>BOND
     1     8     9    1
     2     9    10   ar
     3    10    18    1
     4    18    19    1
     5    19    20    1
     6    10    11   ar
     7    11    12   ar
     8    12    13   ar
     9    13    14   ar
    10    14    15   ar
    11    15     1    1
    12     1     2   ar
    13     2     3   ar
    14     3     4   ar
    15     4    21    1
    16    21    22    1
    17    22    23    1
    18    23    24   ar
    19    24    25   ar
    20    25    26   ar
    21    26    27    1
    22    26    28   ar
    23    28    29   ar
    24     4     5   ar
    25     5     6   ar
    26     6     7    2
    27    15    16   ar
    28    16    17   ar
    29    17     9   ar
    30    20    18    1
    31    17    12   ar
    32     6     1   ar
    33    29    23   ar
@<TRIPOS>MOLECULE
*****
 29 33 0 0 0
SMALL
GASTEIGER

@<TRIPOS>ATOM
      1 N         140.2645  143.0355  160.4800 N.ar    1  UNL1       -0.2715
      2 C         141.7333  142.9058  160.2048 C.ar    1  UNL1        0.0861
      3 C         142.7236  143.6489  161.0517 C.ar    1  UNL1        0.0561
      4 C         142.2450  144.5217  162.1738 C.ar    1  UNL1        0.1453
      5 C         140.7761  144.6514  162.4490 C.ar    1  UNL1        0.0980
      6 C         139.7859  143.9084  161.6021 C.ar    1  UNL1        0.2679
      7 O         138.3170  144.0381  161.8773 O.2     1  UNL1       -0.2665
      8 C         137.2092  143.8208  155.4960 C.3     1  UNL1        0.0517
      9 C         137.0497  142.5375  156.2561 C.ar    1  UNL1        0.0567
     10 C         136.1644  141.3893  155.8717 C.ar    1  UNL1        0.0722
     11 N         136.3152  140.3193  156.9121 N.ar    1  UNL1       -0.2311
     12 C         137.2937  140.8062  157.9395 C.ar    1  UNL1        0.1472
     13 C         137.8300  140.1783  159.1917 C.ar    1  UNL1        0.0389
     14 C         138.8202  140.9214  160.0385 C.ar    1  UNL1        0.0222
     15 C         139.2742  142.2924  159.6331 C.ar    1  UNL1        0.0845
     16 C         138.7379  142.9203  158.3809 C.ar    1  UNL1        0.0988
     17 N         137.7477  142.1771  157.5340 N.ar    1  UNL1       -0.2915
     18 C         135.2831  141.3227  154.6598 C.3     1  UNL1        0.0415
     19 C         135.1162  141.1024  153.1855 C.3     1  UNL1        0.0063
     20 C         133.9235  141.4278  154.0350 C.3     1  UNL1        0.0063
     21 O         143.2352  145.2648  163.0207 O.3     1  UNL1       -0.4704
     22 C         143.6901  144.6840  164.3267 C.3     1  UNL1        0.2320
     23 C         144.0218  143.2243  164.4234 C.ar    1  UNL1        0.0212
     24 C         145.2203  142.6783  163.7054 C.ar    1  UNL1        0.0002
     25 C         145.5519  141.2187  163.8022 C.ar    1  UNL1        0.0112
     26 C         144.6851  140.3050  164.6169 C.ar    1  UNL1        0.0577
     27 CL        145.0168  138.8453  164.7136 Cl      1  UNL1       -0.0822
     28 C         143.4866  140.8509  165.3349 C.ar    1  UNL1        0.0112
     29 C         143.1550  142.3106  165.2382 C.ar    1  UNL1        0.0002
@<TRIPOS>BOND
     1     8     9    1
     2     9    10   ar
     3    10    18    1
     4    18    19    1
     5    19    20    1
     6    10    11   ar
     7    11    12   ar
     8    12    13   ar
     9    13    14   ar
    10    14    15   ar
    11    15     1    1
    12     1     2   ar
    13     2     3   ar
    14     3     4   ar
    15     4    21    1
    16    21    22    1
    17    22    23    1
    18    23    24   ar
    19    24    25   ar
    20    25    26   ar
    21    26    27    1
    22    26    28   ar
    23    28    29   ar
    24     4     5   ar
    25     5     6   ar
    26     6     7    2
    27    15    16   ar
    28    16    17   ar
    29    17     9   ar
    30    20    18    1
    31    17    12   ar
    32     6     1   ar
    33    29    23   ar
@<TRIPOS>MOLECULE
*****
 29 33 0 0 0
SMALL
GASTEIGER

@<TRIPOS>ATOM
      1 N         138.9735  140.4071  161.8847 N.ar    1  UNL1       -0.2715
      2 C         140.0590  139.4104  162.1645 C.ar    1  UNL1        0.0861
      3 C         140.1525  138.7624  163.5141 C.ar    1  UNL1        0.0561
      4 C         139.1606  139.1111  164.5839 C.ar    1  UNL1        0.1453
      5 C         138.0751  140.1078  164.3040 C.ar    1  UNL1        0.0980
      6 C         137.9815  140.7558  162.9545 C.ar    1  UNL1        0.2679
      7 O         136.8960  141.7526  162.6747 O.2     1  UNL1       -0.2665
      8 C         140.8401  145.2978  159.1666 C.3     1  UNL1        0.0517
      9 C         140.0102  144.3090  158.4027 C.ar    1  UNL1        0.0567
     10 C         139.5877  144.4338  156.9689 C.ar    1  UNL1        0.0722
     11 N         138.7734  143.2237  156.6186 N.ar    1  UNL1       -0.2311
     12 C         138.6927  142.3510  157.8360 C.ar    1  UNL1        0.1472
     13 C         138.0219  141.0323  158.0829 C.ar    1  UNL1        0.0389
     14 C         138.1155  140.3844  159.4324 C.ar    1  UNL1        0.0222
     15 C         138.8799  141.0551  160.5351 C.ar    1  UNL1        0.0845
     16 C         139.5507  142.3738  160.2882 C.ar    1  UNL1        0.0988
     17 N         139.4571  143.0218  158.9386 N.ar    1  UNL1       -0.2915
     18 C         139.9209  145.5693  156.0471 C.3     1  UNL1        0.0415
     19 C         140.6809  146.1078  154.8714 C.3     1  UNL1        0.0063
     20 C         139.7382  146.9974  155.6264 C.3     1  UNL1        0.0063
     21 O         139.2541  138.4631  165.9334 O.3     1  UNL1       -0.4704
     22 C         138.6079  139.1102  167.1224 C.3     1  UNL1        0.2320
     23 C         139.3118  140.2184  167.8481 C.ar    1  UNL1        0.0212
     24 C         139.1988  140.3285  169.3397 C.ar    1  UNL1        0.0002
     25 C         139.9027  141.4367  170.0653 C.ar    1  UNL1        0.0112
     26 C         140.7195  142.4347  169.2992 C.ar    1  UNL1        0.0577
     27 CL        141.4234  143.5429  170.0249 Cl      1  UNL1       -0.0822
     28 C         140.8325  142.3245  167.8076 C.ar    1  UNL1        0.0112
     29 C         140.1286  141.2164  167.0820 C.ar    1  UNL1        0.0002
@<TRIPOS>BOND
     1     8     9    1
     2     9    10   ar
     3    10    18    1
     4    18    19    1
     5    19    20    1
     6    10    11   ar
     7    11    12   ar
     8    12    13   ar
     9    13    14   ar
    10    14    15   ar
    11    15     1    1
    12     1     2   ar
    13     2     3   ar
    14     3     4   ar
    15     4    21    1
    16    21    22    1
    17    22    23    1
    18    23    24   ar
    19    24    25   ar
    20    25    26   ar
    21    26    27    1
    22    26    28   ar
    23    28    29   ar
    24     4     5   ar
    25     5     6   ar
    26     6     7    2
    27    15    16   ar
    28    16    17   ar
    29    17     9   ar
    30    20    18    1
    31    17    12   ar
    32     6     1   ar
    33    29    23   ar
