@<TRIPOS>MOLECULE
*****
 23 24 0 0 0
SMALL
GASTEIGER

@<TRIPOS>ATOM
      1 C         140.1195  140.1286  167.8199 C.ar    1  UNL1        0.1327
      2 N         138.8879  139.6520  168.5312 N.ar    1  UNL1       -0.1993
      3 C         138.6575  140.0271  169.9652 C.ar    1  UNL1        0.2148
      4 N         137.4258  139.5504  170.6765 N.pl3   1  UNL1       -0.3274
      5 N         139.6586  140.8788  170.6878 N.ar    1  UNL1       -0.2139
      6 C         140.8902  141.3555  169.9765 C.ar    1  UNL1        0.0868
      7 C         141.8913  142.2073  170.6991 C.ar    1  UNL1        0.0193
      8 C         143.1229  142.6840  169.9878 C.ar    1  UNL1        0.0015
      9 C         143.3533  142.3088  168.5538 C.ar    1  UNL1        0.0002
     10 C         142.3522  141.4571  167.8312 C.ar    1  UNL1        0.0043
     11 C         141.1207  140.9804  168.5425 C.ar    1  UNL1        0.0492
     12 H         136.7687  138.9913  170.2022 H       1  UNL1        0.1452
     13 H         137.2745  139.7966  171.6176 H       1  UNL1        0.1452
     14 N         140.3499  139.7535  166.3860 N.pl3   1  UNL1       -0.3195
     15 H         140.8814  138.9546  166.1654 H       1  UNL1        0.1481
     16 C         139.7707  140.5955  165.2881 C.3     1  UNL1        0.0729
     17 C         140.6432  141.5640  164.5459 C.3     1  UNL1        0.0196
     18 C         139.8777  143.5077  166.0907 C.3     1  UNL1        0.0001
     19 C         140.5494  143.0327  164.8364 C.3     1  UNL1        0.0017
     20 C         138.3190  140.4690  164.9322 C.3     1  UNL1        0.0512
     21 C         137.8884  140.5520  163.4978 C.3     1  UNL1        0.1389
     22 O         136.6211  141.2680  163.1355 O.3     1  UNL1       -0.3819
     23 H         135.8625  140.7898  163.5053 H       1  UNL1        0.2104
@<TRIPOS>BOND
     1    18    19    1
     2    19    17    1
     3    16    17    1
     4    16    20    1
     5    20    21    1
     6    21    22    1
     7    16    14    1
     8    14     1    1
     9     1     2   ar
    10     2     3   ar
    11     3     4    1
    12     3     5   ar
    13     5     6   ar
    14     6     7   ar
    15     7     8   ar
    16     8     9   ar
    17     9    10   ar
    18    10    11   ar
    19    11     1   ar
    20    11     6   ar
    21    22    23    1
    22    14    15    1
    23     4    12    1
    24     4    13    1
@<TRIPOS>MOLECULE
*****
 23 24 0 0 0
SMALL
GASTEIGER

@<TRIPOS>ATOM
      1 C         140.5309  140.8717  166.3686 C.ar    1  UNL1        0.1327
      2 N         140.2264  139.4257  166.1112 N.ar    1  UNL1       -0.1993
      3 C         139.0597  139.0470  165.2478 C.ar    1  UNL1        0.2148
      4 N         138.7553  137.6009  164.9904 N.pl3   1  UNL1       -0.3274
      5 N         138.1974  140.1143  164.6419 N.ar    1  UNL1       -0.2139
      6 C         138.5019  141.5604  164.8993 C.ar    1  UNL1        0.0868
      7 C         137.6396  142.6278  164.2934 C.ar    1  UNL1        0.0193
      8 C         137.9440  144.0738  164.5508 C.ar    1  UNL1        0.0015
      9 C         139.1107  144.4525  165.4141 C.ar    1  UNL1        0.0002
     10 C         139.9730  143.3851  166.0201 C.ar    1  UNL1        0.0043
     11 C         139.6686  141.9391  165.7626 C.ar    1  UNL1        0.0492
     12 H         139.3213  136.9003  165.3881 H       1  UNL1        0.1452
     13 H         137.9895  137.3523  164.4238 H       1  UNL1        0.1452
     14 N         141.6976  141.2503  167.2319 N.pl3   1  UNL1       -0.3195
     15 H         142.5420  141.5420  166.8182 H       1  UNL1        0.1481
     16 C         141.5778  141.1847  168.7257 C.3     1  UNL1        0.0729
     17 C         140.2387  141.3579  169.3790 C.3     1  UNL1        0.0196
     18 C         140.3902  143.9201  169.7817 C.3     1  UNL1        0.0001
     19 C         139.9755  142.5548  170.2441 C.3     1  UNL1        0.0017
     20 C         142.7972  140.9459  169.5661 C.3     1  UNL1        0.0512
     21 C         142.7327  140.0021  170.7301 C.3     1  UNL1        0.1389
     22 O         143.9967  139.5438  171.3950 O.3     1  UNL1       -0.3819
     23 H         144.5101  139.0023  170.7751 H       1  UNL1        0.2104
@<TRIPOS>BOND
     1    18    19    1
     2    19    17    1
     3    16    17    1
     4    16    20    1
     5    20    21    1
     6    21    22    1
     7    16    14    1
     8    14     1    1
     9     1     2   ar
    10     2     3   ar
    11     3     4    1
    12     3     5   ar
    13     5     6   ar
    14     6     7   ar
    15     7     8   ar
    16     8     9   ar
    17     9    10   ar
    18    10    11   ar
    19    11     1   ar
    20    11     6   ar
    21    22    23    1
    22    14    15    1
    23     4    12    1
    24     4    13    1
@<TRIPOS>MOLECULE
*****
 23 24 0 0 0
SMALL
GASTEIGER

@<TRIPOS>ATOM
      1 C         137.6292  141.3514  163.1359 C.ar    1  UNL1        0.1327
      2 N         137.4758  141.3586  161.6438 N.ar    1  UNL1       -0.1993
      3 C         137.7978  140.1267  160.8508 C.ar    1  UNL1        0.2148
      4 N         137.6445  140.1340  159.3586 N.pl3   1  UNL1       -0.3274
      5 N         138.2732  138.8877  161.5498 N.ar    1  UNL1       -0.2139
      6 C         138.4265  138.8804  163.0420 C.ar    1  UNL1        0.0868
      7 C         138.9019  137.6414  163.7411 C.ar    1  UNL1        0.0193
      8 C         139.0552  137.6342  165.2332 C.ar    1  UNL1        0.0015
      9 C         138.7332  138.8660  166.0262 C.ar    1  UNL1        0.0002
     10 C         138.2579  140.1051  165.3271 C.ar    1  UNL1        0.0043
     11 C         138.1045  140.1123  163.8350 C.ar    1  UNL1        0.0492
     12 H         137.3325  140.9472  158.8997 H       1  UNL1        0.1452
     13 H         137.8558  139.3255  158.8381 H       1  UNL1        0.1452
     14 N         137.3072  142.5832  163.9289 N.pl3   1  UNL1       -0.3195
     15 H         136.4749  142.6277  164.4528 H       1  UNL1        0.1481
     16 C         138.2532  143.7472  163.9236 C.3     1  UNL1        0.0729
     17 C         138.9044  144.1902  165.2002 C.3     1  UNL1        0.0196
     18 C         140.9886  142.6451  165.0627 C.3     1  UNL1        0.0001
     19 C         139.9140  143.3078  165.8727 C.3     1  UNL1        0.0017
     20 C         138.5481  144.4682  162.6416 C.3     1  UNL1        0.0512
     21 C         139.9491  144.9061  162.3326 C.3     1  UNL1        0.1389
     22 O         140.3419  146.3429  162.5092 O.3     1  UNL1       -0.3819
     23 H         139.8564  146.8913  161.8732 H       1  UNL1        0.2104
@<TRIPOS>BOND
     1    18    19    1
     2    19    17    1
     3    16    17    1
     4    16    20    1
     5    20    21    1
     6    21    22    1
     7    16    14    1
     8    14     1    1
     9     1     2   ar
    10     2     3   ar
    11     3     4    1
    12     3     5   ar
    13     5     6   ar
    14     6     7   ar
    15     7     8   ar
    16     8     9   ar
    17     9    10   ar
    18    10    11   ar
    19    11     1   ar
    20    11     6   ar
    21    22    23    1
    22    14    15    1
    23     4    12    1
    24     4    13    1
@<TRIPOS>MOLECULE
*****
 23 24 0 0 0
SMALL
GASTEIGER

@<TRIPOS>ATOM
      1 C         139.0091  139.9521  165.4118 C.ar    1  UNL1        0.1327
      2 N         138.0618  138.8360  165.7389 N.ar    1  UNL1       -0.1993
      3 C         137.7960  138.4730  167.1698 C.ar    1  UNL1        0.2148
      4 N         136.8487  137.3569  167.4969 N.pl3   1  UNL1       -0.3274
      5 N         138.4775  139.2260  168.2736 N.ar    1  UNL1       -0.2139
      6 C         139.4249  140.3421  167.9466 C.ar    1  UNL1        0.0868
      7 C         140.1064  141.0951  169.0504 C.ar    1  UNL1        0.0193
      8 C         141.0537  142.2112  168.7233 C.ar    1  UNL1        0.0015
      9 C         141.3194  142.5742  167.2923 C.ar    1  UNL1        0.0002
     10 C         140.6379  141.8212  166.1885 C.ar    1  UNL1        0.0043
     11 C         139.6907  140.7051  166.5156 C.ar    1  UNL1        0.0492
     12 H         136.4014  136.8626  166.7724 H       1  UNL1        0.1452
     13 H         136.6742  137.1186  168.4360 H       1  UNL1        0.1452
     14 N         139.2749  140.3151  163.9808 N.pl3   1  UNL1       -0.3195
     15 H         140.2012  140.3878  163.6553 H       1  UNL1        0.1481
     16 C         138.1294  140.5673  163.0459 C.3     1  UNL1        0.0729
     17 C         137.3304  141.8314  163.1625 C.3     1  UNL1        0.0196
     18 C         138.6444  143.9933  163.7538 C.3     1  UNL1        0.0001
     19 C         137.7259  142.8793  164.1603 C.3     1  UNL1        0.0017
     20 C         137.7829  139.5553  161.9942 C.3     1  UNL1        0.0512
     21 C         138.5864  138.2946  161.8728 C.3     1  UNL1        0.1389
     22 O         138.6572  137.3365  163.0247 O.3     1  UNL1       -0.3819
     23 H         139.1231  137.7553  163.7654 H       1  UNL1        0.2104
@<TRIPOS>BOND
     1    18    19    1
     2    19    17    1
     3    16    17    1
     4    16    20    1
     5    20    21    1
     6    21    22    1
     7    16    14    1
     8    14     1    1
     9     1     2   ar
    10     2     3   ar
    11     3     4    1
    12     3     5   ar
    13     5     6   ar
    14     6     7   ar
    15     7     8   ar
    16     8     9   ar
    17     9    10   ar
    18    10    11   ar
    19    11     1   ar
    20    11     6   ar
    21    22    23    1
    22    14    15    1
    23     4    12    1
    24     4    13    1
@<TRIPOS>MOLECULE
*****
 23 24 0 0 0
SMALL
GASTEIGER

@<TRIPOS>ATOM
      1 C         142.2724  140.1287  167.7930 C.ar    1  UNL1        0.1327
      2 N         142.8750  138.9308  168.4652 N.ar    1  UNL1       -0.1993
      3 C         142.7924  138.7867  169.9560 C.ar    1  UNL1        0.2148
      4 N         143.3950  137.5887  170.6282 N.pl3   1  UNL1       -0.3274
      5 N         142.1071  139.8404  170.7745 N.ar    1  UNL1       -0.2139
      6 C         141.5045  141.0384  170.1023 C.ar    1  UNL1        0.0868
      7 C         140.8193  142.0921  170.9208 C.ar    1  UNL1        0.0193
      8 C         140.2167  143.2900  170.2486 C.ar    1  UNL1        0.0015
      9 C         140.2993  143.4341  168.7578 C.ar    1  UNL1        0.0002
     10 C         140.9845  142.3804  167.9393 C.ar    1  UNL1        0.0043
     11 C         141.5871  141.1825  168.6115 C.ar    1  UNL1        0.0492
     12 H         143.8447  136.8971  170.0909 H       1  UNL1        0.1452
     13 H         143.3408  137.4941  171.6066 H       1  UNL1        0.1452
     14 N         142.3550  140.2728  166.3022 N.pl3   1  UNL1       -0.3195
     15 H         142.9710  140.9299  165.9046 H       1  UNL1        0.1481
     16 C         141.4992  139.4159  165.4173 C.3     1  UNL1        0.0729
     17 C         140.1058  139.8510  165.0722 C.3     1  UNL1        0.0196
     18 C         138.1781  138.5876  166.2713 C.3     1  UNL1        0.0001
     19 C         139.0283  139.8134  166.1152 C.3     1  UNL1        0.0017
     20 C         142.0367  138.1237  164.8773 C.3     1  UNL1        0.0512
     21 C         141.1050  137.1235  164.2599 C.3     1  UNL1        0.1389
     22 O         141.2407  136.7681  162.8090 O.3     1  UNL1       -0.3819
     23 H         141.0303  137.5433  162.2652 H       1  UNL1        0.2104
@<TRIPOS>BOND
     1    18    19    1
     2    19    17    1
     3    16    17    1
     4    16    20    1
     5    20    21    1
     6    21    22    1
     7    16    14    1
     8    14     1    1
     9     1     2   ar
    10     2     3   ar
    11     3     4    1
    12     3     5   ar
    13     5     6   ar
    14     6     7   ar
    15     7     8   ar
    16     8     9   ar
    17     9    10   ar
    18    10    11   ar
    19    11     1   ar
    20    11     6   ar
    21    22    23    1
    22    14    15    1
    23     4    12    1
    24     4    13    1
@<TRIPOS>MOLECULE
*****
 23 24 0 0 0
SMALL
GASTEIGER

@<TRIPOS>ATOM
      1 C         139.9495  143.1938  164.2859 C.ar    1  UNL1        0.1327
      2 N         139.2813  144.0987  163.2937 N.ar    1  UNL1       -0.1993
      3 C         140.0727  145.1702  162.6042 C.ar    1  UNL1        0.2148
      4 N         139.4045  146.0752  161.6119 N.pl3   1  UNL1       -0.3274
      5 N         141.5324  145.3368  162.9068 N.ar    1  UNL1       -0.2139
      6 C         142.2007  144.4318  163.8990 C.ar    1  UNL1        0.0868
      7 C         143.6603  144.5983  164.2017 C.ar    1  UNL1        0.0193
      8 C         144.3285  143.6934  165.1939 C.ar    1  UNL1        0.0015
      9 C         143.5371  142.6219  165.8834 C.ar    1  UNL1        0.0002
     10 C         142.0774  142.4553  165.5808 C.ar    1  UNL1        0.0043
     11 C         141.4092  143.3603  164.5886 C.ar    1  UNL1        0.0492
     12 H         138.4464  145.9659  161.4133 H       1  UNL1        0.1452
     13 H         139.9239  146.7785  161.1593 H       1  UNL1        0.1452
     14 N         139.1580  142.1223  164.9755 N.pl3   1  UNL1       -0.3195
     15 H         138.5443  142.3581  165.7083 H       1  UNL1        0.1481
     16 C         139.3017  140.6915  164.5486 C.3     1  UNL1        0.0729
     17 C         139.7563  139.6566  165.5346 C.3     1  UNL1        0.0196
     18 C         137.7782  138.6067  166.8517 C.3     1  UNL1        0.0001
     19 C         139.0075  139.4656  166.8203 C.3     1  UNL1        0.0017
     20 C         138.9906  140.2956  163.1355 C.3     1  UNL1        0.0512
     21 C         137.7882  140.8665  162.4441 C.3     1  UNL1        0.1389
     22 O         136.6361  141.3876  163.2509 O.3     1  UNL1       -0.3819
     23 H         136.2166  140.6539  163.7269 H       1  UNL1        0.2104
@<TRIPOS>BOND
     1    18    19    1
     2    19    17    1
     3    16    17    1
     4    16    20    1
     5    20    21    1
     6    21    22    1
     7    16    14    1
     8    14     1    1
     9     1     2   ar
    10     2     3   ar
    11     3     4    1
    12     3     5   ar
    13     5     6   ar
    14     6     7   ar
    15     7     8   ar
    16     8     9   ar
    17     9    10   ar
    18    10    11   ar
    19    11     1   ar
    20    11     6   ar
    21    22    23    1
    22    14    15    1
    23     4    12    1
    24     4    13    1
@<TRIPOS>MOLECULE
*****
 23 24 0 0 0
SMALL
GASTEIGER

@<TRIPOS>ATOM
      1 C         139.5172  140.3421  166.7679 C.ar    1  UNL1        0.1327
      2 N         139.2500  139.7935  168.1382 N.ar    1  UNL1       -0.1993
      3 C         140.2501  140.0002  169.2370 C.ar    1  UNL1        0.2148
      4 N         139.9828  139.4516  170.6073 N.pl3   1  UNL1       -0.3274
      5 N         141.5173  140.7553  168.9654 N.ar    1  UNL1       -0.2139
      6 C         141.7846  141.3039  167.5951 C.ar    1  UNL1        0.0868
      7 C         143.0518  142.0591  167.3236 C.ar    1  UNL1        0.0193
      8 C         143.3190  142.6076  165.9533 C.ar    1  UNL1        0.0015
      9 C         142.3190  142.4009  164.8546 C.ar    1  UNL1        0.0002
     10 C         141.0518  141.6458  165.1261 C.ar    1  UNL1        0.0043
     11 C         140.7845  141.0973  166.4964 C.ar    1  UNL1        0.0492
     12 H         139.1510  138.9560  170.7855 H       1  UNL1        0.1452
     13 H         140.6391  139.5872  171.3284 H       1  UNL1        0.1452
     14 N         138.5172  140.1354  165.6692 N.pl3   1  UNL1       -0.3195
     15 H         137.7033  140.6882  165.6341 H       1  UNL1        0.1481
     16 C         138.7573  139.0867  164.6240 C.3     1  UNL1        0.0729
     17 C         139.2108  137.7151  165.0281 C.3     1  UNL1        0.0196
     18 C         141.7969  137.9567  164.9665 C.3     1  UNL1        0.0001
     19 C         140.5527  137.2091  164.5884 C.3     1  UNL1        0.0017
     20 C         138.5438  139.4094  163.1747 C.3     1  UNL1        0.0512
     21 C         138.0152  140.7553  162.7761 C.3     1  UNL1        0.1389
     22 O         136.6948  141.2297  163.3066 O.3     1  UNL1       -0.3819
     23 H         135.9855  140.6670  162.9584 H       1  UNL1        0.2104
@<TRIPOS>BOND
     1    18    19    1
     2    19    17    1
     3    16    17    1
     4    16    20    1
     5    20    21    1
     6    21    22    1
     7    16    14    1
     8    14     1    1
     9     1     2   ar
    10     2     3   ar
    11     3     4    1
    12     3     5   ar
    13     5     6   ar
    14     6     7   ar
    15     7     8   ar
    16     8     9   ar
    17     9    10   ar
    18    10    11   ar
    19    11     1   ar
    20    11     6   ar
    21    22    23    1
    22    14    15    1
    23     4    12    1
    24     4    13    1
@<TRIPOS>MOLECULE
*****
 23 24 0 0 0
SMALL
GASTEIGER

@<TRIPOS>ATOM
      1 C         141.3723  142.2010  165.3210 C.ar    1  UNL1        0.1327
      2 N         142.4266  142.6435  166.2919 N.ar    1  UNL1       -0.1993
      3 C         142.4274  142.1088  167.6934 C.ar    1  UNL1        0.2148
      4 N         143.4817  142.5513  168.6643 N.pl3   1  UNL1       -0.3274
      5 N         141.3741  141.1315  168.1239 N.ar    1  UNL1       -0.2139
      6 C         140.3198  140.6889  167.1529 C.ar    1  UNL1        0.0868
      7 C         139.2664  139.7117  167.5835 C.ar    1  UNL1        0.0193
      8 C         138.2122  139.2692  166.6125 C.ar    1  UNL1        0.0015
      9 C         138.2113  139.8039  165.2111 C.ar    1  UNL1        0.0002
     10 C         139.2647  140.7811  164.7805 C.ar    1  UNL1        0.0043
     11 C         140.3189  141.2237  165.7515 C.ar    1  UNL1        0.0492
     12 H         144.1731  143.1927  168.3817 H       1  UNL1        0.1452
     13 H         143.4823  142.2004  169.5841 H       1  UNL1        0.1452
     14 N         141.3715  142.7357  163.9195 N.pl3   1  UNL1       -0.3195
     15 H         141.6615  142.1622  163.1737 H       1  UNL1        0.1481
     16 C         140.9288  144.1441  163.6544 C.3     1  UNL1        0.0729
     17 C         139.5160  144.4194  163.2324 C.3     1  UNL1        0.0196
     18 C         138.6452  144.9310  165.6262 C.3     1  UNL1        0.0001
     19 C         138.4112  144.3906  164.2466 C.3     1  UNL1        0.0017
     20 C         141.8990  145.2774  163.8114 C.3     1  UNL1        0.0512
     21 C         143.3583  145.0579  163.5427 C.3     1  UNL1        0.1389
     22 O         144.1570  144.1529  164.4331 O.3     1  UNL1       -0.3819
     23 H         144.2117  144.5391  165.3213 H       1  UNL1        0.2104
@<TRIPOS>BOND
     1    18    19    1
     2    19    17    1
     3    16    17    1
     4    16    20    1
     5    20    21    1
     6    21    22    1
     7    16    14    1
     8    14     1    1
     9     1     2   ar
    10     2     3   ar
    11     3     4    1
    12     3     5   ar
    13     5     6   ar
    14     6     7   ar
    15     7     8   ar
    16     8     9   ar
    17     9    10   ar
    18    10    11   ar
    19    11     1   ar
    20    11     6   ar
    21    22    23    1
    22    14    15    1
    23     4    12    1
    24     4    13    1
@<TRIPOS>MOLECULE
*****
 23 24 0 0 0
SMALL
GASTEIGER

@<TRIPOS>ATOM
      1 C         142.2142  140.5258  166.0643 C.ar    1  UNL1        0.1327
      2 N         143.5099  140.3891  165.3211 N.ar    1  UNL1       -0.1993
      3 C         143.6698  139.3181  164.2831 C.ar    1  UNL1        0.2148
      4 N         144.9656  139.1813  163.5399 N.pl3   1  UNL1       -0.3274
      5 N         142.5339  138.3838  163.9883 N.ar    1  UNL1       -0.2139
      6 C         141.2381  138.5205  164.7315 C.ar    1  UNL1        0.0868
      7 C         140.1022  137.5863  164.4368 C.ar    1  UNL1        0.0193
      8 C         138.8065  137.7230  165.1800 C.ar    1  UNL1        0.0015
      9 C         138.6467  138.7940  166.2179 C.ar    1  UNL1        0.0002
     10 C         139.7825  139.7283  166.5127 C.ar    1  UNL1        0.0043
     11 C         141.0782  139.5915  165.7695 C.ar    1  UNL1        0.0492
     12 H         145.7111  139.7945  163.7334 H       1  UNL1        0.1452
     13 H         145.0705  138.4784  162.8587 H       1  UNL1        0.1452
     14 N         142.0543  141.5968  167.1023 N.pl3   1  UNL1       -0.3195
     15 H         141.6104  142.4445  166.8706 H       1  UNL1        0.1481
     16 C         142.5708  141.3763  168.4931 C.3     1  UNL1        0.0729
     17 C         142.9791  142.5480  169.3361 C.3     1  UNL1        0.0196
     18 C         140.5833  143.5124  169.6195 C.3     1  UNL1        0.0001
     19 C         141.9576  143.2659  170.1676 C.3     1  UNL1        0.0017
     20 C         142.6790  139.9842  169.0411 C.3     1  UNL1        0.0512
     21 C         142.6920  139.7609  170.5243 C.3     1  UNL1        0.1389
     22 O         143.9947  139.7347  171.2674 O.3     1  UNL1       -0.3819
     23 H         144.5138  138.9662  170.9830 H       1  UNL1        0.2104
@<TRIPOS>BOND
     1    18    19    1
     2    19    17    1
     3    16    17    1
     4    16    20    1
     5    20    21    1
     6    21    22    1
     7    16    14    1
     8    14     1    1
     9     1     2   ar
    10     2     3   ar
    11     3     4    1
    12     3     5   ar
    13     5     6   ar
    14     6     7   ar
    15     7     8   ar
    16     8     9   ar
    17     9    10   ar
    18    10    11   ar
    19    11     1   ar
    20    11     6   ar
    21    22    23    1
    22    14    15    1
    23     4    12    1
    24     4    13    1
