@<TRIPOS>MOLECULE
*****
 28 30 0 0 0
SMALL
GASTEIGER

@<TRIPOS>ATOM
      1 N         142.5967  140.5971  165.4925 N.pl3   1  UNL1       -0.2616
      2 C         142.8834  142.0022  165.0524 C.ar    1  UNL1        0.0545
      3 C         144.0773  142.7296  165.5960 C.ar    1  UNL1        0.0149
      4 C         144.3638  144.1346  165.1559 C.ar    1  UNL1        0.0026
      5 C         143.4565  144.8123  164.1723 C.ar    1  UNL1        0.0184
      6 C         142.2627  144.0849  163.6287 C.ar    1  UNL1        0.1070
      7 C         141.9761  142.6799  164.0688 C.ar    1  UNL1        0.0332
      8 S         141.3554  144.7626  162.6451 S.O2    1  UNL1        0.0105
      9 C         140.4480  145.4403  161.6614 C.3     1  UNL1        0.1816
     10 O         142.4314  144.6900  161.6025 O.2     1  UNL1       -0.1686
     11 O         140.2793  144.8352  163.6876 O.2     1  UNL1       -0.1686
     12 P         141.2424  140.2411  166.0303 P.3     1  UNL1        0.2265
     13 O         139.8881  139.8852  166.5680 O.2     1  UNL1       -0.2903
     14 C         140.9858  139.3911  164.8213 C.ar    1  UNL1        0.0498
     15 C         141.2499  137.9154  164.8723 C.ar    1  UNL1        0.0046
     16 C         140.9932  137.0654  163.6633 C.ar    1  UNL1        0.0002
     17 C         140.4725  137.6910  162.4034 C.ar    1  UNL1        0.0000
     18 C         140.2085  139.1667  162.3524 C.ar    1  UNL1        0.0002
     19 C         140.4651  140.0167  163.5614 C.ar    1  UNL1        0.0046
     20 C         141.4991  141.0912  167.2392 C.ar    1  UNL1        0.0498
     21 C         142.6406  140.7658  168.1562 C.ar    1  UNL1        0.0046
     22 C         142.8972  141.6159  169.3652 C.ar    1  UNL1        0.0002
     23 C         142.0123  142.7913  169.6571 C.ar    1  UNL1        0.0000
     24 C         140.8708  143.1167  168.7401 C.ar    1  UNL1        0.0002
     25 C         140.6142  142.2666  167.5311 C.ar    1  UNL1        0.0046
     26 C         143.6643  139.5480  165.3948 C.3     1  UNL1        0.0974
     27 C         144.1181  139.2287  162.8566 C.3     1  UNL1        0.0018
     28 C         144.6152  139.5514  164.2347 C.3     1  UNL1        0.0218
@<TRIPOS>BOND
     1    27    28    1
     2    28    26    1
     3    26     1    1
     4     1     2    1
     5     2     3   ar
     6     3     4   ar
     7     4     5   ar
     8     5     6   ar
     9     6     8    1
    10     8     9    1
    11     8    10    2
    12     8    11    2
    13     6     7   ar
    14     1    12    1
    15    12    13    2
    16    12    14    1
    17    14    15   ar
    18    15    16   ar
    19    16    17   ar
    20    17    18   ar
    21    18    19   ar
    22    12    20    1
    23    20    21   ar
    24    21    22   ar
    25    22    23   ar
    26    23    24   ar
    27    24    25   ar
    28     7     2   ar
    29    19    14   ar
    30    25    20   ar
@<TRIPOS>MOLECULE
*****
 28 30 0 0 0
SMALL
GASTEIGER

@<TRIPOS>ATOM
      1 N         142.6119  140.5923  165.4773 N.pl3   1  UNL1       -0.2616
      2 C         142.8912  141.9994  165.0386 C.ar    1  UNL1        0.0545
      3 C         144.0691  142.7399  165.5991 C.ar    1  UNL1        0.0149
      4 C         144.3483  144.1468  165.1605 C.ar    1  UNL1        0.0026
      5 C         143.4497  144.8133  164.1613 C.ar    1  UNL1        0.0184
      6 C         142.2718  144.0727  163.6008 C.ar    1  UNL1        0.1070
      7 C         141.9926  142.6658  164.0395 C.ar    1  UNL1        0.0332
      8 S         141.3732  144.7392  162.6016 S.O2    1  UNL1        0.0105
      9 C         140.4746  145.4056  161.6025 C.3     1  UNL1        0.1816
     10 O         142.4588  144.6562  161.5699 O.2     1  UNL1       -0.1686
     11 O         140.2875  144.8221  163.6334 O.2     1  UNL1       -0.1686
     12 P         141.2649  140.2327  166.0306 P.3     1  UNL1        0.2265
     13 O         139.9179  139.8730  166.5840 O.2     1  UNL1       -0.2903
     14 C         141.5355  141.0788  167.2393 C.ar    1  UNL1        0.0498
     15 C         140.6619  142.2610  167.5381 C.ar    1  UNL1        0.0046
     16 C         140.9325  143.1071  168.7467 C.ar    1  UNL1        0.0002
     17 C         142.0767  142.7711  169.6566 C.ar    1  UNL1        0.0000
     18 C         142.9503  141.5889  169.3578 C.ar    1  UNL1        0.0002
     19 C         142.6797  140.7428  168.1492 C.ar    1  UNL1        0.0046
     20 C         140.9943  139.3865  164.8220 C.ar    1  UNL1        0.0498
     21 C         140.4512  140.0149  163.5729 C.ar    1  UNL1        0.0046
     22 C         140.1806  139.1687  162.3643 C.ar    1  UNL1        0.0002
     23 C         140.4531  137.6943  162.4047 C.ar    1  UNL1        0.0000
     24 C         140.9961  137.0659  163.6538 C.ar    1  UNL1        0.0002
     25 C         141.2667  137.9121  164.8624 C.ar    1  UNL1        0.0046
     26 C         143.6796  139.5450  165.3625 C.3     1  UNL1        0.0974
     27 C         144.0956  139.2304  162.8173 C.3     1  UNL1        0.0018
     28 C         144.6130  139.5511  164.1883 C.3     1  UNL1        0.0218
@<TRIPOS>BOND
     1    27    28    1
     2    28    26    1
     3    26     1    1
     4     1     2    1
     5     2     3   ar
     6     3     4   ar
     7     4     5   ar
     8     5     6   ar
     9     6     8    1
    10     8     9    1
    11     8    10    2
    12     8    11    2
    13     6     7   ar
    14     1    12    1
    15    12    13    2
    16    12    14    1
    17    14    15   ar
    18    15    16   ar
    19    16    17   ar
    20    17    18   ar
    21    18    19   ar
    22    12    20    1
    23    20    21   ar
    24    21    22   ar
    25    22    23   ar
    26    23    24   ar
    27    24    25   ar
    28     7     2   ar
    29    19    14   ar
    30    25    20   ar
@<TRIPOS>MOLECULE
*****
 28 30 0 0 0
SMALL
GASTEIGER

@<TRIPOS>ATOM
      1 N         141.2219  141.4800  165.9562 N.pl3   1  UNL1       -0.2616
      2 C         140.5937  142.6521  165.2622 C.ar    1  UNL1        0.0545
      3 C         139.5408  143.4609  165.9603 C.ar    1  UNL1        0.0149
      4 C         138.9127  144.6330  165.2663 C.ar    1  UNL1        0.0026
      5 C         139.3373  144.9963  163.8743 C.ar    1  UNL1        0.0184
      6 C         140.3901  144.1875  163.1762 C.ar    1  UNL1        0.1070
      7 C         141.0183  143.0154  163.8702 C.ar    1  UNL1        0.0332
      8 S         140.8148  144.5507  161.7842 S.O2    1  UNL1        0.0105
      9 C         141.2395  144.9140  160.3922 C.3     1  UNL1        0.1816
     10 O         139.3767  144.6979  161.3839 O.2     1  UNL1       -0.1686
     11 O         142.2529  144.4035  162.1845 O.2     1  UNL1       -0.1686
     12 P         142.3084  141.7007  166.9665 P.3     1  UNL1        0.2265
     13 O         143.3949  141.9214  167.9768 O.2     1  UNL1       -0.2903
     14 C         143.3268  141.7269  165.8655 C.ar    1  UNL1        0.0498
     15 C         144.0330  143.0063  165.5273 C.ar    1  UNL1        0.0046
     16 C         145.0514  143.0324  164.4263 C.ar    1  UNL1        0.0002
     17 C         145.3637  141.7792  163.6636 C.ar    1  UNL1        0.0000
     18 C         144.6575  140.4998  164.0018 C.ar    1  UNL1        0.0002
     19 C         143.6391  140.4736  165.1028 C.ar    1  UNL1        0.0046
     20 C         141.2900  141.6746  168.0674 C.ar    1  UNL1        0.0498
     21 C         140.5122  140.4213  168.3400 C.ar    1  UNL1        0.0046
     22 C         139.4938  140.3952  169.4410 C.ar    1  UNL1        0.0002
     23 C         139.2531  141.6223  170.2694 C.ar    1  UNL1        0.0000
     24 C         140.0309  142.8755  169.9968 C.ar    1  UNL1        0.0002
     25 C         141.0494  142.9017  168.8958 C.ar    1  UNL1        0.0046
     26 C         140.7636  140.0872  165.6398 C.3     1  UNL1        0.0974
     27 C         138.2201  139.5576  165.6165 C.3     1  UNL1        0.0018
     28 C         139.4885  139.8717  164.8797 C.3     1  UNL1        0.0218
@<TRIPOS>BOND
     1    27    28    1
     2    28    26    1
     3    26     1    1
     4     1     2    1
     5     2     3   ar
     6     3     4   ar
     7     4     5   ar
     8     5     6   ar
     9     6     8    1
    10     8     9    1
    11     8    10    2
    12     8    11    2
    13     6     7   ar
    14     1    12    1
    15    12    13    2
    16    12    14    1
    17    14    15   ar
    18    15    16   ar
    19    16    17   ar
    20    17    18   ar
    21    18    19   ar
    22    12    20    1
    23    20    21   ar
    24    21    22   ar
    25    22    23   ar
    26    23    24   ar
    27    24    25   ar
    28     7     2   ar
    29    19    14   ar
    30    25    20   ar
@<TRIPOS>MOLECULE
*****
 28 30 0 0 0
SMALL
GASTEIGER

@<TRIPOS>ATOM
      1 N         141.5024  141.4541  166.2597 N.pl3   1  UNL1       -0.2616
      2 C         140.5167  142.2831  165.4906 C.ar    1  UNL1        0.0545
      3 C         139.9193  143.5091  166.1149 C.ar    1  UNL1        0.0149
      4 C         138.9336  144.3379  165.3459 C.ar    1  UNL1        0.0026
      5 C         138.5454  143.9407  163.9525 C.ar    1  UNL1        0.0184
      6 C         139.1429  142.7147  163.3282 C.ar    1  UNL1        0.1070
      7 C         140.1285  141.8858  164.0972 C.ar    1  UNL1        0.0332
      8 S         138.7547  142.3175  161.9348 S.O2    1  UNL1        0.0105
      9 C         138.3665  141.9203  160.5414 C.3     1  UNL1        0.1816
     10 O         139.3101  140.9444  162.1715 O.2     1  UNL1       -0.1686
     11 O         138.1992  143.6906  161.6981 O.2     1  UNL1       -0.1686
     12 P         141.0272  140.5545  167.3619 P.3     1  UNL1        0.2265
     13 O         140.5520  139.6548  168.4641 O.2     1  UNL1       -0.2903
     14 C         140.4732  139.6012  166.3449 C.ar    1  UNL1        0.0498
     15 C         138.9892  139.4373  166.2006 C.ar    1  UNL1        0.0046
     16 C         138.4352  138.4840  165.1836 C.ar    1  UNL1        0.0002
     17 C         139.3653  137.6945  164.3109 C.ar    1  UNL1        0.0000
     18 C         140.8492  137.8583  164.4552 C.ar    1  UNL1        0.0002
     19 C         141.4032  138.8117  165.4721 C.ar    1  UNL1        0.0046
     20 C         141.5812  141.5078  168.3789 C.ar    1  UNL1        0.0498
     21 C         140.6968  142.5588  168.9816 C.ar    1  UNL1        0.0046
     22 C         141.2508  143.5121  169.9986 C.ar    1  UNL1        0.0002
     23 C         142.6891  143.4145  170.4129 C.ar    1  UNL1        0.0000
     24 C         143.5734  142.3635  169.8101 C.ar    1  UNL1        0.0002
     25 C         143.0195  141.4102  168.7931 C.ar    1  UNL1        0.0046
     26 C         142.9632  141.5249  165.9266 C.3     1  UNL1        0.0974
     27 C         144.5657  143.5528  165.6623 C.3     1  UNL1        0.0018
     28 C         143.4913  142.6651  165.1074 C.3     1  UNL1        0.0218
@<TRIPOS>BOND
     1    27    28    1
     2    28    26    1
     3    26     1    1
     4     1     2    1
     5     2     3   ar
     6     3     4   ar
     7     4     5   ar
     8     5     6   ar
     9     6     8    1
    10     8     9    1
    11     8    10    2
    12     8    11    2
    13     6     7   ar
    14     1    12    1
    15    12    13    2
    16    12    14    1
    17    14    15   ar
    18    15    16   ar
    19    16    17   ar
    20    17    18   ar
    21    18    19   ar
    22    12    20    1
    23    20    21   ar
    24    21    22   ar
    25    22    23   ar
    26    23    24   ar
    27    24    25   ar
    28     7     2   ar
    29    19    14   ar
    30    25    20   ar
@<TRIPOS>MOLECULE
*****
 28 30 0 0 0
SMALL
GASTEIGER

@<TRIPOS>ATOM
      1 N         141.5106  141.4211  166.2526 N.pl3   1  UNL1       -0.2616
      2 C         140.5309  142.2567  165.4831 C.ar    1  UNL1        0.0545
      3 C         139.9398  143.4855  166.1080 C.ar    1  UNL1        0.0149
      4 C         138.9601  144.3210  165.3385 C.ar    1  UNL1        0.0026
      5 C         138.5715  143.9277  163.9441 C.ar    1  UNL1        0.0184
      6 C         139.1626  142.6989  163.3192 C.ar    1  UNL1        0.1070
      7 C         140.1423  141.8634  164.0887 C.ar    1  UNL1        0.0332
      8 S         138.7741  142.3056  161.9248 S.O2    1  UNL1        0.0105
      9 C         138.3855  141.9123  160.5304 C.3     1  UNL1        0.1816
     10 O         139.4787  140.9929  162.0987 O.2     1  UNL1       -0.1686
     11 O         138.0694  143.6183  161.7509 O.2     1  UNL1       -0.1686
     12 P         141.0294  140.5284  167.3578 P.3     1  UNL1        0.2265
     13 O         140.5482  139.6356  168.4630 O.2     1  UNL1       -0.2903
     14 C         141.5850  141.4841  168.3716 C.ar    1  UNL1        0.0498
     15 C         143.0251  141.3903  168.7806 C.ar    1  UNL1        0.0046
     16 C         143.5807  142.3460  169.7944 C.ar    1  UNL1        0.0002
     17 C         142.6961  143.3956  170.3994 C.ar    1  UNL1        0.0000
     18 C         141.2560  143.4894  169.9905 C.ar    1  UNL1        0.0002
     19 C         140.7005  142.5337  168.9766 C.ar    1  UNL1        0.0046
     20 C         140.4738  139.5726  166.3439 C.ar    1  UNL1        0.0498
     21 C         141.4025  138.7782  165.4742 C.ar    1  UNL1        0.0046
     22 C         140.8470  137.8225  164.4604 C.ar    1  UNL1        0.0002
     23 C         139.3627  137.6612  164.3162 C.ar    1  UNL1        0.0000
     24 C         138.4340  138.4556  165.1859 C.ar    1  UNL1        0.0002
     25 C         138.9896  139.4113  166.1997 C.ar    1  UNL1        0.0046
     26 C         142.9714  141.4783  165.9168 C.3     1  UNL1        0.0974
     27 C         144.5283  143.5416  165.6546 C.3     1  UNL1        0.0018
     28 C         143.5057  142.6048  165.0829 C.3     1  UNL1        0.0218
@<TRIPOS>BOND
     1    27    28    1
     2    28    26    1
     3    26     1    1
     4     1     2    1
     5     2     3   ar
     6     3     4   ar
     7     4     5   ar
     8     5     6   ar
     9     6     8    1
    10     8     9    1
    11     8    10    2
    12     8    11    2
    13     6     7   ar
    14     1    12    1
    15    12    13    2
    16    12    14    1
    17    14    15   ar
    18    15    16   ar
    19    16    17   ar
    20    17    18   ar
    21    18    19   ar
    22    12    20    1
    23    20    21   ar
    24    21    22   ar
    25    22    23   ar
    26    23    24   ar
    27    24    25   ar
    28     7     2   ar
    29    19    14   ar
    30    25    20   ar
@<TRIPOS>MOLECULE
*****
 28 30 0 0 0
SMALL
GASTEIGER

@<TRIPOS>ATOM
      1 N         141.4197  141.6229  165.6365 N.pl3   1  UNL1       -0.2616
      2 C         140.4883  142.5214  164.8778 C.ar    1  UNL1        0.0545
      3 C         139.7417  143.6061  165.5960 C.ar    1  UNL1        0.0149
      4 C         138.8104  144.5045  164.8373 C.ar    1  UNL1        0.0026
      5 C         138.6258  144.3181  163.3605 C.ar    1  UNL1        0.0184
      6 C         139.3724  143.2334  162.6422 C.ar    1  UNL1        0.1070
      7 C         140.3037  142.3350  163.4009 C.ar    1  UNL1        0.0332
      8 S         139.1877  143.0470  161.1654 S.O2    1  UNL1        0.0105
      9 C         139.0030  142.8606  159.6885 C.3     1  UNL1        0.1816
     10 O         140.6763  143.0186  160.9828 O.2     1  UNL1       -0.1686
     11 O         137.6991  143.0754  161.3479 O.2     1  UNL1       -0.1686
     12 P         142.5728  142.2081  166.3967 P.3     1  UNL1        0.2265
     13 O         143.7259  142.7932  167.1569 O.2     1  UNL1       -0.2903
     14 C         141.9480  141.7641  167.6861 C.ar    1  UNL1        0.0498
     15 C         142.4053  140.4958  168.3435 C.ar    1  UNL1        0.0046
     16 C         141.7805  140.0518  169.6329 C.ar    1  UNL1        0.0002
     17 C         140.6984  140.8762  170.2649 C.ar    1  UNL1        0.0000
     18 C         140.2411  142.1445  169.6075 C.ar    1  UNL1        0.0002
     19 C         140.8659  142.5884  168.3181 C.ar    1  UNL1        0.0046
     20 C         143.1976  142.6520  165.1073 C.ar    1  UNL1        0.0498
     21 C         143.1854  144.1033  164.7286 C.ar    1  UNL1        0.0046
     22 C         143.8102  144.5473  163.4392 C.ar    1  UNL1        0.0002
     23 C         144.4472  143.5399  162.5285 C.ar    1  UNL1        0.0000
     24 C         144.4593  142.0886  162.9072 C.ar    1  UNL1        0.0002
     25 C         143.8345  141.6446  164.1966 C.ar    1  UNL1        0.0046
     26 C         141.1979  140.1394  165.6349 C.3     1  UNL1        0.0974
     27 C         139.0398  139.5843  166.9707 C.3     1  UNL1        0.0018
     28 C         139.8030  139.5896  165.6794 C.3     1  UNL1        0.0218
@<TRIPOS>BOND
     1    27    28    1
     2    28    26    1
     3    26     1    1
     4     1     2    1
     5     2     3   ar
     6     3     4   ar
     7     4     5   ar
     8     5     6   ar
     9     6     8    1
    10     8     9    1
    11     8    10    2
    12     8    11    2
    13     6     7   ar
    14     1    12    1
    15    12    13    2
    16    12    14    1
    17    14    15   ar
    18    15    16   ar
    19    16    17   ar
    20    17    18   ar
    21    18    19   ar
    22    12    20    1
    23    20    21   ar
    24    21    22   ar
    25    22    23   ar
    26    23    24   ar
    27    24    25   ar
    28     7     2   ar
    29    19    14   ar
    30    25    20   ar
@<TRIPOS>MOLECULE
*****
 28 30 0 0 0
SMALL
GASTEIGER

@<TRIPOS>ATOM
      1 N         141.4423  141.6128  165.6583 N.pl3   1  UNL1       -0.2616
      2 C         140.5029  142.5039  164.9008 C.ar    1  UNL1        0.0545
      3 C         139.7549  143.5880  165.6185 C.ar    1  UNL1        0.0149
      4 C         138.8156  144.4790  164.8611 C.ar    1  UNL1        0.0026
      5 C         138.6244  144.2860  163.3859 C.ar    1  UNL1        0.0184
      6 C         139.3725  143.2020  162.6682 C.ar    1  UNL1        0.1070
      7 C         140.3117  142.3109  163.4256 C.ar    1  UNL1        0.0332
      8 S         139.1813  143.0089  161.1930 S.O2    1  UNL1        0.0105
      9 C         138.9901  142.8159  159.7178 C.3     1  UNL1        0.1816
     10 O         137.6941  143.0768  161.3768 O.2     1  UNL1       -0.1686
     11 O         140.6684  142.9411  161.0091 O.2     1  UNL1       -0.1686
     12 P         142.5949  142.2065  166.4126 P.3     1  UNL1        0.2265
     13 O         143.7475  142.8002  167.1669 O.2     1  UNL1       -0.2903
     14 C         141.9734  141.7696  167.7060 C.ar    1  UNL1        0.0498
     15 C         140.8848  142.5914  168.3303 C.ar    1  UNL1        0.0046
     16 C         140.2634  142.1545  169.6237 C.ar    1  UNL1        0.0002
     17 C         140.7305  140.8960  170.2929 C.ar    1  UNL1        0.0000
     18 C         141.8191  140.0743  169.6686 C.ar    1  UNL1        0.0002
     19 C         142.4405  140.5111  168.3752 C.ar    1  UNL1        0.0046
     20 C         143.2164  142.6433  165.1192 C.ar    1  UNL1        0.0498
     21 C         143.8532  141.6312  164.2136 C.ar    1  UNL1        0.0046
     22 C         144.4747  142.0681  162.9201 C.ar    1  UNL1        0.0002
     23 C         144.4593  143.5169  162.5323 C.ar    1  UNL1        0.0000
     24 C         143.8225  144.5290  163.4379 C.ar    1  UNL1        0.0002
     25 C         143.2010  144.0922  164.7313 C.ar    1  UNL1        0.0046
     26 C         141.2289  140.1281  165.6614 C.3     1  UNL1        0.0974
     27 C         139.0732  139.5903  167.0081 C.3     1  UNL1        0.0018
     28 C         139.8376  139.5704  165.7176 C.3     1  UNL1        0.0218
@<TRIPOS>BOND
     1    27    28    1
     2    28    26    1
     3    26     1    1
     4     1     2    1
     5     2     3   ar
     6     3     4   ar
     7     4     5   ar
     8     5     6   ar
     9     6     8    1
    10     8     9    1
    11     8    10    2
    12     8    11    2
    13     6     7   ar
    14     1    12    1
    15    12    13    2
    16    12    14    1
    17    14    15   ar
    18    15    16   ar
    19    16    17   ar
    20    17    18   ar
    21    18    19   ar
    22    12    20    1
    23    20    21   ar
    24    21    22   ar
    25    22    23   ar
    26    23    24   ar
    27    24    25   ar
    28     7     2   ar
    29    19    14   ar
    30    25    20   ar
@<TRIPOS>MOLECULE
*****
 28 30 0 0 0
SMALL
GASTEIGER

@<TRIPOS>ATOM
      1 N         141.4267  141.6255  165.6000 N.pl3   1  UNL1       -0.2616
      2 C         140.4920  142.5243  164.8459 C.ar    1  UNL1        0.0545
      3 C         139.7455  143.6061  165.5686 C.ar    1  UNL1        0.0149
      4 C         138.8109  144.5049  164.8145 C.ar    1  UNL1        0.0026
      5 C         138.6229  144.3218  163.3376 C.ar    1  UNL1        0.0184
      6 C         139.3694  143.2400  162.6149 C.ar    1  UNL1        0.1070
      7 C         140.3040  142.3412  163.3690 C.ar    1  UNL1        0.0332
      8 S         139.1813  143.0569  161.1380 S.O2    1  UNL1        0.0105
      9 C         138.9932  142.8739  159.6612 C.3     1  UNL1        0.1816
     10 O         137.6944  143.0199  161.3320 O.2     1  UNL1       -0.1686
     11 O         140.6683  143.0939  160.9441 O.2     1  UNL1       -0.1686
     12 P         142.5790  142.2108  166.3613 P.3     1  UNL1        0.2265
     13 O         143.7313  142.7962  167.1226 O.2     1  UNL1       -0.2903
     14 C         143.2032  142.6578  165.0727 C.ar    1  UNL1        0.0498
     15 C         143.1884  144.1097  164.6961 C.ar    1  UNL1        0.0046
     16 C         143.8127  144.5567  163.4075 C.ar    1  UNL1        0.0002
     17 C         144.4518  143.5519  162.4955 C.ar    1  UNL1        0.0000
     18 C         144.4666  142.1000  162.8721 C.ar    1  UNL1        0.0002
     19 C         143.8423  141.6530  164.1607 C.ar    1  UNL1        0.0046
     20 C         141.9547  141.7638  167.6499 C.ar    1  UNL1        0.0498
     21 C         142.4141  140.4953  168.3054 C.ar    1  UNL1        0.0046
     22 C         141.7898  140.0483  169.5940 C.ar    1  UNL1        0.0002
     23 C         140.7062  140.8698  170.2271 C.ar    1  UNL1        0.0000
     24 C         140.2469  142.1383  169.5716 C.ar    1  UNL1        0.0002
     25 C         140.8711  142.5853  168.2830 C.ar    1  UNL1        0.0046
     26 C         141.2090  140.1414  165.5929 C.3     1  UNL1        0.0974
     27 C         139.0516  139.5948  166.9334 C.3     1  UNL1        0.0018
     28 C         139.8159  139.5875  165.6427 C.3     1  UNL1        0.0218
@<TRIPOS>BOND
     1    27    28    1
     2    28    26    1
     3    26     1    1
     4     1     2    1
     5     2     3   ar
     6     3     4   ar
     7     4     5   ar
     8     5     6   ar
     9     6     8    1
    10     8     9    1
    11     8    10    2
    12     8    11    2
    13     6     7   ar
    14     1    12    1
    15    12    13    2
    16    12    14    1
    17    14    15   ar
    18    15    16   ar
    19    16    17   ar
    20    17    18   ar
    21    18    19   ar
    22    12    20    1
    23    20    21   ar
    24    21    22   ar
    25    22    23   ar
    26    23    24   ar
    27    24    25   ar
    28     7     2   ar
    29    19    14   ar
    30    25    20   ar
@<TRIPOS>MOLECULE
*****
 28 30 0 0 0
SMALL
GASTEIGER

@<TRIPOS>ATOM
      1 N         141.4836  141.7881  165.9490 N.pl3   1  UNL1       -0.2616
      2 C         140.7334  142.8360  165.1813 C.ar    1  UNL1        0.0545
      3 C         139.6943  143.6703  165.8700 C.ar    1  UNL1        0.0149
      4 C         138.9442  144.7181  165.1024 C.ar    1  UNL1        0.0026
      5 C         139.2331  144.9317  163.6461 C.ar    1  UNL1        0.0184
      6 C         140.2722  144.0975  162.9574 C.ar    1  UNL1        0.1070
      7 C         141.0223  143.0496  163.7250 C.ar    1  UNL1        0.0332
      8 S         140.5612  144.3111  161.5011 S.O2    1  UNL1        0.0105
      9 C         140.8501  144.5247  160.0447 C.3     1  UNL1        0.1816
     10 O         139.0944  144.2290  161.1980 O.2     1  UNL1       -0.1686
     11 O         142.0279  144.3932  161.8041 O.2     1  UNL1       -0.1686
     12 P         140.7400  140.8242  166.8253 P.3     1  UNL1        0.2265
     13 O         139.9964  139.8603  167.7016 O.2     1  UNL1       -0.2903
     14 C         141.3748  141.4372  168.0382 C.ar    1  UNL1        0.0498
     15 C         142.5755  140.7915  168.6637 C.ar    1  UNL1        0.0046
     16 C         143.2103  141.4045  169.8766 C.ar    1  UNL1        0.0002
     17 C         142.6444  142.6633  170.4641 C.ar    1  UNL1        0.0000
     18 C         141.4436  143.3090  169.8387 C.ar    1  UNL1        0.0002
     19 C         140.8089  142.6960  168.6257 C.ar    1  UNL1        0.0046
     20 C         140.1052  140.2112  165.6124 C.ar    1  UNL1        0.0498
     21 C         138.6482  140.4346  165.3344 C.ar    1  UNL1        0.0046
     22 C         138.0134  139.8216  164.1215 C.ar    1  UNL1        0.0002
     23 C         138.8356  138.9851  163.1865 C.ar    1  UNL1        0.0000
     24 C         140.2925  138.7616  163.4644 C.ar    1  UNL1        0.0002
     25 C         140.9273  139.3746  164.6774 C.ar    1  UNL1        0.0046
     26 C         142.9772  141.7042  165.8402 C.3     1  UNL1        0.0974
     27 C         144.4985  143.5957  164.9138 C.3     1  UNL1        0.0018
     28 C         143.8158  142.9265  166.0698 C.3     1  UNL1        0.0218
@<TRIPOS>BOND
     1    27    28    1
     2    28    26    1
     3    26     1    1
     4     1     2    1
     5     2     3   ar
     6     3     4   ar
     7     4     5   ar
     8     5     6   ar
     9     6     8    1
    10     8     9    1
    11     8    10    2
    12     8    11    2
    13     6     7   ar
    14     1    12    1
    15    12    13    2
    16    12    14    1
    17    14    15   ar
    18    15    16   ar
    19    16    17   ar
    20    17    18   ar
    21    18    19   ar
    22    12    20    1
    23    20    21   ar
    24    21    22   ar
    25    22    23   ar
    26    23    24   ar
    27    24    25   ar
    28     7     2   ar
    29    19    14   ar
    30    25    20   ar
