@<TRIPOS>MOLECULE
*****
 38 42 0 0 0
SMALL
GASTEIGER

@<TRIPOS>ATOM
      1 C         138.7470  139.9203  159.4716 C.3     1  UNL1        0.0758
      2 C         138.0954  139.3257  160.6847 C.3     1  UNL1        0.0370
      3 C         137.6265  140.2165  161.7968 C.3     1  UNL1        0.0741
      4 N         137.8092  141.7018  161.6956 N.3     1  UNL1       -0.2688
      5 C         138.4608  142.2965  160.4824 C.3     1  UNL1        0.0741
      6 C         138.9297  141.4057  159.3703 C.3     1  UNL1        0.0370
      7 O         141.5210  138.7795  159.5317 O.2     1  UNL1       -0.2528
      8 C         140.6029  138.4591  158.3896 C.2     1  UNL1        0.3011
      9 N         141.0718  137.5683  157.2775 N.am    1  UNL1       -0.2782
     10 N         139.2159  139.0295  158.3595 N.am    1  UNL1       -0.2905
     11 H         140.4692  137.3580  156.5280 H       1  UNL1        0.1515
     12 H         138.6133  138.8191  157.6099 H       1  UNL1        0.1509
     13 C         142.4588  136.9979  157.3076 C.3     1  UNL1        0.2162
     14 C         142.7433  135.6825  156.6452 C.2     1  UNL1        0.3713
     15 N         143.6401  134.6037  157.1761 N.2     1  UNL1       -0.0334
     16 C         143.6321  133.4694  156.1947 C.2     1  UNL1        0.2318
     17 C         144.3294  132.1414  156.1898 C.2     1  UNL1        0.0498
     18 C         144.1249  131.1911  155.0474 C.2     1  UNL1       -0.0002
     19 C         143.2230  131.5689  153.9099 C.2     1  UNL1       -0.0172
     20 C         142.5257  132.8969  153.9147 C.3     1  UNL1        0.1037
     21 C         142.7302  133.8471  155.0571 C.2     1  UNL1        0.2175
     22 N         142.1810  135.2149  155.3356 N.2     1  UNL1       -0.0372
     23 C         137.3404  142.5926  162.8077 C.3     1  UNL1        0.1007
     24 C         138.2306  142.8523  163.9867 C.ar    1  UNL1        0.0129
     25 C         138.6274  144.2002  164.5119 C.ar    1  UNL1        0.0176
     26 C         139.5224  143.9906  165.6973 C.ar    1  UNL1        0.0799
     27 N         139.6786  142.5132  165.9047 N.ar    1  UNL1       -0.3038
     28 C         138.8802  141.8098  164.8475 C.ar    1  UNL1        0.0772
     29 C         140.4906  141.8549  166.9804 C.ar    1  UNL1        0.0640
     30 C         141.8842  142.3308  167.2655 C.ar    1  UNL1        0.0175
     31 C         142.6963  141.6725  168.3412 C.ar    1  UNL1        0.0053
     32 C         142.1147  140.5383  169.1320 C.ar    1  UNL1        0.0715
     33 C         140.7209  140.0623  168.8470 C.ar    1  UNL1        0.0053
     34 C         139.9090  140.7207  167.7712 C.ar    1  UNL1        0.0175
     35 C         142.9267  139.8800  170.2078 C.3     1  UNL1        0.4186
     36 F         143.7387  139.2217  171.2835 F       1  UNL1       -0.1659
     37 F         142.0174  138.6879  170.1646 F       1  UNL1       -0.1659
     38 F         143.8360  141.0722  170.2509 F       1  UNL1       -0.1659
@<TRIPOS>BOND
     1     7     8    2
     2     8     9   am
     3     9    13    1
     4    13    14    1
     5    14    15    2
     6    15    16    1
     7    16    17    2
     8    17    18    1
     9    18    19    2
    10    19    20    1
    11    20    21    1
    12    21    22    2
    13     8    10   am
    14    10     1    1
    15     1     2    1
    16     2     3    1
    17     3     4    1
    18     4    23    1
    19    23    24    1
    20    24    25   ar
    21    25    26   ar
    22    26    27   ar
    23    27    29    1
    24    29    30   ar
    25    30    31   ar
    26    31    32   ar
    27    32    35    1
    28    35    36    1
    29    35    37    1
    30    35    38    1
    31    32    33   ar
    32    33    34   ar
    33    27    28   ar
    34     4     5    1
    35     5     6    1
    36    22    14    1
    37     6     1    1
    38    21    16    1
    39    28    24   ar
    40    34    29   ar
    41     9    11    1
    42    10    12    1
@<TRIPOS>MOLECULE
*****
 38 42 0 0 0
SMALL
GASTEIGER

@<TRIPOS>ATOM
      1 C         143.7443  140.8728  159.2809 C.3     1  UNL1        0.0758
      2 C         143.1525  142.1817  158.8489 C.3     1  UNL1        0.0370
      3 C         142.9054  143.2629  159.8588 C.3     1  UNL1        0.0741
      4 N         143.2500  143.0353  161.3008 N.3     1  UNL1       -0.2688
      5 C         143.8419  141.7264  161.7329 C.3     1  UNL1        0.0741
      6 C         144.0890  140.6452  160.7230 C.3     1  UNL1        0.0370
      7 O         141.6711  138.7556  158.8125 O.2     1  UNL1       -0.2528
      8 C         142.9548  138.7330  158.0368 C.2     1  UNL1        0.3011
      9 N         143.2019  137.6518  157.0269 N.am    1  UNL1       -0.2782
     10 N         143.9914  139.7916  158.2710 N.am    1  UNL1       -0.2905
     11 H         144.0444  137.6369  156.5178 H       1  UNL1        0.1515
     12 H         144.8339  139.7768  157.7619 H       1  UNL1        0.1509
     13 C         142.1654  136.5931  156.7927 C.3     1  UNL1        0.2162
     14 C         142.5855  135.1974  156.4386 C.2     1  UNL1        0.3713
     15 N         143.8903  134.5512  156.7991 N.2     1  UNL1       -0.0334
     16 C         143.8859  133.1572  156.2451 C.2     1  UNL1        0.2318
     17 C         144.9035  132.0561  156.2899 C.2     1  UNL1        0.0498
     18 C         144.6136  130.7398  155.6319 C.2     1  UNL1       -0.0002
     19 C         143.3060  130.5245  154.9291 C.2     1  UNL1       -0.0172
     20 C         142.2884  131.6255  154.8843 C.3     1  UNL1        0.1037
     21 C         142.5783  132.9419  155.5424 C.2     1  UNL1        0.2175
     22 N         141.7747  134.2028  155.6619 N.2     1  UNL1       -0.0372
     23 C         143.0029  144.1165  162.3107 C.3     1  UNL1        0.1007
     24 C         141.9734  143.9195  163.3836 C.ar    1  UNL1        0.0129
     25 C         140.6756  144.6614  163.5071 C.ar    1  UNL1        0.0176
     26 C         139.9610  144.1465  164.7213 C.ar    1  UNL1        0.0799
     27 N         140.8173  143.0863  165.3482 N.ar    1  UNL1       -0.3038
     28 C         142.0610  142.9461  164.5214 C.ar    1  UNL1        0.0772
     29 C         140.4877  142.3038  166.5848 C.ar    1  UNL1        0.0640
     30 C         140.6821  142.9219  167.9375 C.ar    1  UNL1        0.0175
     31 C         140.3525  142.1394  169.1741 C.ar    1  UNL1        0.0053
     32 C         139.8284  140.7387  169.0579 C.ar    1  UNL1        0.0715
     33 C         139.6340  140.1205  167.7050 C.ar    1  UNL1        0.0053
     34 C         139.9636  140.9031  166.4685 C.ar    1  UNL1        0.0175
     35 C         139.4988  139.9562  170.2944 C.3     1  UNL1        0.4186
     36 F         139.1692  139.1737  171.5309 F       1  UNL1       -0.1659
     37 F         138.1115  140.5264  170.2854 F       1  UNL1       -0.1659
     38 F         140.8862  139.3860  170.3034 F       1  UNL1       -0.1659
@<TRIPOS>BOND
     1     7     8    2
     2     8     9   am
     3     9    13    1
     4    13    14    1
     5    14    15    2
     6    15    16    1
     7    16    17    2
     8    17    18    1
     9    18    19    2
    10    19    20    1
    11    20    21    1
    12    21    22    2
    13     8    10   am
    14    10     1    1
    15     1     2    1
    16     2     3    1
    17     3     4    1
    18     4    23    1
    19    23    24    1
    20    24    25   ar
    21    25    26   ar
    22    26    27   ar
    23    27    29    1
    24    29    30   ar
    25    30    31   ar
    26    31    32   ar
    27    32    35    1
    28    35    36    1
    29    35    37    1
    30    35    38    1
    31    32    33   ar
    32    33    34   ar
    33    27    28   ar
    34     4     5    1
    35     5     6    1
    36    22    14    1
    37     6     1    1
    38    21    16    1
    39    28    24   ar
    40    34    29   ar
    41     9    11    1
    42    10    12    1
@<TRIPOS>MOLECULE
*****
 38 42 0 0 0
SMALL
GASTEIGER

@<TRIPOS>ATOM
      1 C         141.7491  139.0977  158.5281 C.3     1  UNL1        0.0758
      2 C         141.6102  140.5532  158.1931 C.3     1  UNL1        0.0370
      3 C         142.4483  141.5708  158.9087 C.3     1  UNL1        0.0741
      4 N         143.4252  141.1329  159.9593 N.3     1  UNL1       -0.2688
      5 C         143.5641  139.6774  160.2944 C.3     1  UNL1        0.0741
      6 C         142.7261  138.6598  159.5787 C.3     1  UNL1        0.0370
      7 O         143.0304  137.1820  156.6076 O.2     1  UNL1       -0.2528
      8 C         141.5517  137.1222  156.8522 C.2     1  UNL1        0.3011
      9 N         140.7136  136.1046  156.1366 N.am    1  UNL1       -0.2782
     10 N         140.9110  138.0801  157.8125 N.am    1  UNL1       -0.2905
     11 H         139.7431  136.0654  156.2971 H       1  UNL1        0.1515
     12 H         139.9405  138.0409  157.9730 H       1  UNL1        0.1509
     13 C         141.3543  135.1468  155.1763 C.3     1  UNL1        0.2162
     14 C         142.0073  133.8968  155.6873 C.2     1  UNL1        0.3713
     15 N         143.1603  133.8324  156.6446 N.2     1  UNL1       -0.0334
     16 C         143.4876  132.3875  156.8796 C.2     1  UNL1        0.2318
     17 C         144.5285  131.7194  157.7281 C.2     1  UNL1        0.0498
     18 C         144.6186  130.2225  157.7645 C.2     1  UNL1       -0.0002
     19 C         143.6679  129.3939  156.9524 C.2     1  UNL1       -0.0172
     20 C         142.6270  130.0621  156.1039 C.3     1  UNL1        0.1037
     21 C         142.5369  131.5589  156.0675 C.2     1  UNL1        0.2175
     22 N         141.6220  132.4917  155.3306 N.2     1  UNL1       -0.0372
     23 C         144.2633  142.1505  160.6750 C.3     1  UNL1        0.1007
     24 C         144.2854  142.1834  162.1744 C.ar    1  UNL1        0.0129
     25 C         145.5065  142.0902  163.0405 C.ar    1  UNL1        0.0176
     26 C         145.0661  142.1644  164.4724 C.ar    1  UNL1        0.0799
     27 N         143.5726  142.3036  164.4913 N.ar    1  UNL1       -0.3038
     28 C         143.0902  142.3153  163.0711 C.ar    1  UNL1        0.0772
     29 C         142.7127  142.4119  165.7156 C.ar    1  UNL1        0.0640
     30 C         143.3149  142.2141  167.0750 C.ar    1  UNL1        0.0175
     31 C         142.4549  142.3224  168.2993 C.ar    1  UNL1        0.0053
     32 C         140.9928  142.6287  168.1641 C.ar    1  UNL1        0.0715
     33 C         140.3905  142.8266  166.8045 C.ar    1  UNL1        0.0053
     34 C         141.2505  142.7182  165.5803 C.ar    1  UNL1        0.0175
     35 C         140.1328  142.7371  169.3883 C.3     1  UNL1        0.4186
     36 F         139.2729  142.8454  170.6125 F       1  UNL1       -0.1659
     37 F         140.6359  144.1312  169.6183 F       1  UNL1       -0.1659
     38 F         139.6297  141.3428  169.1583 F       1  UNL1       -0.1659
@<TRIPOS>BOND
     1     7     8    2
     2     8     9   am
     3     9    13    1
     4    13    14    1
     5    14    15    2
     6    15    16    1
     7    16    17    2
     8    17    18    1
     9    18    19    2
    10    19    20    1
    11    20    21    1
    12    21    22    2
    13     8    10   am
    14    10     1    1
    15     1     2    1
    16     2     3    1
    17     3     4    1
    18     4    23    1
    19    23    24    1
    20    24    25   ar
    21    25    26   ar
    22    26    27   ar
    23    27    29    1
    24    29    30   ar
    25    30    31   ar
    26    31    32   ar
    27    32    35    1
    28    35    36    1
    29    35    37    1
    30    35    38    1
    31    32    33   ar
    32    33    34   ar
    33    27    28   ar
    34     4     5    1
    35     5     6    1
    36    22    14    1
    37     6     1    1
    38    21    16    1
    39    28    24   ar
    40    34    29   ar
    41     9    11    1
    42    10    12    1
@<TRIPOS>MOLECULE
*****
 38 42 0 0 0
SMALL
GASTEIGER

@<TRIPOS>ATOM
      1 C         141.9004  138.6203  160.4545 C.3     1  UNL1        0.0758
      2 C         140.5136  139.1864  160.3755 C.3     1  UNL1        0.0370
      3 C         139.5119  138.8690  161.4459 C.3     1  UNL1        0.0741
      4 N         139.8969  137.9855  162.5953 N.3     1  UNL1       -0.2688
      5 C         141.2838  137.4193  162.6743 C.3     1  UNL1        0.0741
      6 C         142.2855  137.7367  161.6039 C.3     1  UNL1        0.0370
      7 O         141.4564  137.6524  157.6499 O.2     1  UNL1       -0.2528
      8 C         142.6802  138.4537  157.9818 C.2     1  UNL1        0.3011
      9 N         143.6819  138.7712  156.9114 N.am    1  UNL1       -0.2782
     10 N         142.9022  138.9377  159.3841 N.am    1  UNL1       -0.2905
     11 H         144.4851  139.2971  157.1293 H       1  UNL1        0.1515
     12 H         143.7054  139.4637  159.6020 H       1  UNL1        0.1509
     13 C         143.4599  138.2872  155.5091 C.3     1  UNL1        0.2162
     14 C         143.3152  136.8193  155.2363 C.2     1  UNL1        0.3713
     15 N         142.5189  136.2035  154.1243 N.2     1  UNL1       -0.0334
     16 C         142.6529  134.7131  154.2284 C.2     1  UNL1        0.2318
     17 C         142.0880  133.5946  153.4039 C.2     1  UNL1        0.0498
     18 C         142.4022  132.1708  153.7559 C.2     1  UNL1       -0.0002
     19 C         143.2812  131.8655  154.9324 C.2     1  UNL1       -0.0172
     20 C         143.8461  132.9840  155.7568 C.3     1  UNL1        0.1037
     21 C         143.5320  134.4078  155.4048 C.2     1  UNL1        0.2175
     22 N         143.9413  135.7095  156.0277 N.2     1  UNL1       -0.0372
     23 C         138.8951  137.6681  163.6657 C.3     1  UNL1        0.1007
     24 C         138.9908  138.3372  165.0047 C.ar    1  UNL1        0.0129
     25 C         137.9683  138.2681  166.1000 C.ar    1  UNL1        0.0176
     26 C         138.4714  139.0811  167.2558 C.ar    1  UNL1        0.0799
     27 N         139.8048  139.6528  166.8747 N.ar    1  UNL1       -0.3038
     28 C         140.1258  139.1931  165.4835 C.ar    1  UNL1        0.0772
     29 C         140.6660  140.5303  167.7341 C.ar    1  UNL1        0.0640
     30 C         140.3900  140.6436  169.2041 C.ar    1  UNL1        0.0175
     31 C         141.2512  141.5210  170.0635 C.ar    1  UNL1        0.0053
     32 C         142.3884  142.2851  169.4528 C.ar    1  UNL1        0.0715
     33 C         142.6645  142.1718  167.9827 C.ar    1  UNL1        0.0053
     34 C         141.8032  141.2944  167.1234 C.ar    1  UNL1        0.0175
     35 C         143.2496  143.1625  170.3122 C.3     1  UNL1        0.4186
     36 F         144.1108  144.0399  171.1715 F       1  UNL1       -0.1659
     37 F         144.4067  142.2311  170.1037 F       1  UNL1       -0.1659
     38 F         142.0926  144.0940  170.5207 F       1  UNL1       -0.1659
@<TRIPOS>BOND
     1     7     8    2
     2     8     9   am
     3     9    13    1
     4    13    14    1
     5    14    15    2
     6    15    16    1
     7    16    17    2
     8    17    18    1
     9    18    19    2
    10    19    20    1
    11    20    21    1
    12    21    22    2
    13     8    10   am
    14    10     1    1
    15     1     2    1
    16     2     3    1
    17     3     4    1
    18     4    23    1
    19    23    24    1
    20    24    25   ar
    21    25    26   ar
    22    26    27   ar
    23    27    29    1
    24    29    30   ar
    25    30    31   ar
    26    31    32   ar
    27    32    35    1
    28    35    36    1
    29    35    37    1
    30    35    38    1
    31    32    33   ar
    32    33    34   ar
    33    27    28   ar
    34     4     5    1
    35     5     6    1
    36    22    14    1
    37     6     1    1
    38    21    16    1
    39    28    24   ar
    40    34    29   ar
    41     9    11    1
    42    10    12    1
@<TRIPOS>MOLECULE
*****
 38 42 0 0 0
SMALL
GASTEIGER

@<TRIPOS>ATOM
      1 C         142.0842  139.3506  158.7007 C.3     1  UNL1        0.0758
      2 C         142.0597  140.7905  158.2812 C.3     1  UNL1        0.0370
      3 C         142.9148  141.7945  158.9959 C.3     1  UNL1        0.0741
      4 N         143.7944  141.3587  160.1300 N.3     1  UNL1       -0.2688
      5 C         143.8190  139.9187  160.5495 C.3     1  UNL1        0.0741
      6 C         142.9639  138.9146  159.8348 C.3     1  UNL1        0.0370
      7 O         143.3474  137.3350  156.8726 O.2     1  UNL1       -0.2528
      8 C         141.8608  137.3387  157.0720 C.2     1  UNL1        0.3011
      9 N         141.0057  136.3347  156.3573 N.am    1  UNL1       -0.2782
     10 N         141.2291  138.3465  157.9860 N.am    1  UNL1       -0.2905
     11 H         140.0299  136.3372  156.4882 H       1  UNL1        0.1515
     12 H         140.2534  138.3490  158.1169 H       1  UNL1        0.1509
     13 C         141.6372  135.3269  155.4433 C.3     1  UNL1        0.2162
     14 C         142.3267  134.1239  156.0154 C.2     1  UNL1        0.3713
     15 N         141.8368  132.7081  155.9404 N.2     1  UNL1       -0.0334
     16 C         142.8345  131.8346  156.6416 C.2     1  UNL1        0.2318
     17 C         142.8783  130.3548  156.8828 C.2     1  UNL1        0.0498
     18 C         144.0287  129.7509  157.6324 C.2     1  UNL1       -0.0002
     19 C         145.1353  130.6268  158.1407 C.2     1  UNL1       -0.0172
     20 C         145.0914  132.1066  157.8994 C.3     1  UNL1        0.1037
     21 C         143.9410  132.7105  157.1498 C.2     1  UNL1        0.2175
     22 N         143.6272  134.1253  156.7628 N.2     1  UNL1       -0.0372
     23 C         144.6495  142.3627  160.8446 C.3     1  UNL1        0.1007
     24 C         144.1758  142.9707  162.1314 C.ar    1  UNL1        0.0129
     25 C         144.3725  144.3951  162.5586 C.ar    1  UNL1        0.0176
     26 C         143.7405  144.5658  163.9082 C.ar    1  UNL1        0.0799
     27 N         143.1531  143.2469  164.3151 N.ar    1  UNL1       -0.3038
     28 C         143.4222  142.2611  163.2170 C.ar    1  UNL1        0.0772
     29 C         142.4247  142.9636  165.5953 C.ar    1  UNL1        0.0640
     30 C         140.9414  143.1717  165.6761 C.ar    1  UNL1        0.0175
     31 C         140.2129  142.8884  166.9564 C.ar    1  UNL1        0.0053
     32 C         140.9677  142.3969  168.1559 C.ar    1  UNL1        0.0715
     33 C         142.4510  142.1887  168.0751 C.ar    1  UNL1        0.0053
     34 C         143.1794  142.4720  166.7948 C.ar    1  UNL1        0.0175
     35 C         140.2392  142.1135  169.4361 C.3     1  UNL1        0.4186
     36 F         139.5107  141.8302  170.7163 F       1  UNL1       -0.1659
     37 F         139.6622  140.8677  168.8321 F       1  UNL1       -0.1659
     38 F         140.8161  143.3595  170.0402 F       1  UNL1       -0.1659
@<TRIPOS>BOND
     1     7     8    2
     2     8     9   am
     3     9    13    1
     4    13    14    1
     5    14    15    2
     6    15    16    1
     7    16    17    2
     8    17    18    1
     9    18    19    2
    10    19    20    1
    11    20    21    1
    12    21    22    2
    13     8    10   am
    14    10     1    1
    15     1     2    1
    16     2     3    1
    17     3     4    1
    18     4    23    1
    19    23    24    1
    20    24    25   ar
    21    25    26   ar
    22    26    27   ar
    23    27    29    1
    24    29    30   ar
    25    30    31   ar
    26    31    32   ar
    27    32    35    1
    28    35    36    1
    29    35    37    1
    30    35    38    1
    31    32    33   ar
    32    33    34   ar
    33    27    28   ar
    34     4     5    1
    35     5     6    1
    36    22    14    1
    37     6     1    1
    38    21    16    1
    39    28    24   ar
    40    34    29   ar
    41     9    11    1
    42    10    12    1
@<TRIPOS>MOLECULE
*****
 38 42 0 0 0
SMALL
GASTEIGER

@<TRIPOS>ATOM
      1 C         138.2645  141.8625  161.5761 C.3     1  UNL1        0.0758
      2 C         138.9915  143.1663  161.4290 C.3     1  UNL1        0.0370
      3 C         139.5988  143.5417  160.1098 C.3     1  UNL1        0.0741
      4 N         139.4790  142.6134  158.9377 N.3     1  UNL1       -0.2688
      5 C         138.7519  141.3096  159.0848 C.3     1  UNL1        0.0741
      6 C         138.1447  140.9341  160.4040 C.3     1  UNL1        0.0370
      7 O         139.6143  139.8332  163.3254 O.2     1  UNL1       -0.2528
      8 C         138.3322  140.4724  163.7700 C.2     1  UNL1        0.3011
      9 N         137.7250  140.0970  165.0892 N.am    1  UNL1       -0.2782
     10 N         137.6573  141.4871  162.8953 N.am    1  UNL1       -0.2905
     11 H         136.8835  140.5165  165.3810 H       1  UNL1        0.1515
     12 H         136.8158  141.9066  163.1871 H       1  UNL1        0.1509
     13 C         138.3998  139.0823  165.9639 C.3     1  UNL1        0.2162
     14 C         139.3565  139.5285  167.0296 C.2     1  UNL1        0.3713
     15 N         139.0550  139.6396  168.4947 N.2     1  UNL1       -0.0334
     16 C         140.2948  140.1217  169.1879 C.2     1  UNL1        0.2318
     17 C         140.5894  140.4147  170.6292 C.2     1  UNL1        0.0498
     18 C         141.9517  140.8945  171.0337 C.2     1  UNL1       -0.0002
     19 C         143.0195  141.0814  169.9969 C.2     1  UNL1       -0.0172
     20 C         142.7249  140.7884  168.5556 C.3     1  UNL1        0.1037
     21 C         141.3626  140.3086  168.1511 C.2     1  UNL1        0.2175
     22 N         140.7827  139.9420  166.8172 N.2     1  UNL1       -0.0372
     23 C         140.0862  142.9888  157.6185 C.3     1  UNL1        0.1007
     24 C         139.4822  144.0924  156.8017 C.ar    1  UNL1        0.0129
     25 C         138.3175  143.9606  155.8657 C.ar    1  UNL1        0.0176
     26 C         138.0523  145.3084  155.2630 C.ar    1  UNL1        0.0799
     27 N         139.0531  146.2732  155.8267 N.ar    1  UNL1       -0.3038
     28 C         139.9368  145.5217  156.7776 C.ar    1  UNL1        0.0772
     29 C         139.1526  147.7332  155.4972 C.ar    1  UNL1        0.0640
     30 C         139.9442  148.1805  154.3042 C.ar    1  UNL1        0.0175
     31 C         140.0438  149.6405  153.9747 C.ar    1  UNL1        0.0053
     32 C         139.3518  150.6531  154.8382 C.ar    1  UNL1        0.0715
     33 C         138.5602  150.2058  156.0313 C.ar    1  UNL1        0.0053
     34 C         138.4606  148.7458  156.3607 C.ar    1  UNL1        0.0175
     35 C         139.4513  152.1131  154.5087 C.3     1  UNL1        0.4186
     36 F         139.5509  153.5730  154.1792 F       1  UNL1       -0.1659
     37 F         140.8919  151.9301  154.1332 F       1  UNL1       -0.1659
     38 F         138.0107  152.2961  154.8842 F       1  UNL1       -0.1659
@<TRIPOS>BOND
     1     7     8    2
     2     8     9   am
     3     9    13    1
     4    13    14    1
     5    14    15    2
     6    15    16    1
     7    16    17    2
     8    17    18    1
     9    18    19    2
    10    19    20    1
    11    20    21    1
    12    21    22    2
    13     8    10   am
    14    10     1    1
    15     1     2    1
    16     2     3    1
    17     3     4    1
    18     4    23    1
    19    23    24    1
    20    24    25   ar
    21    25    26   ar
    22    26    27   ar
    23    27    29    1
    24    29    30   ar
    25    30    31   ar
    26    31    32   ar
    27    32    35    1
    28    35    36    1
    29    35    37    1
    30    35    38    1
    31    32    33   ar
    32    33    34   ar
    33    27    28   ar
    34     4     5    1
    35     5     6    1
    36    22    14    1
    37     6     1    1
    38    21    16    1
    39    28    24   ar
    40    34    29   ar
    41     9    11    1
    42    10    12    1
@<TRIPOS>MOLECULE
*****
 38 42 0 0 0
SMALL
GASTEIGER

@<TRIPOS>ATOM
      1 C         139.0137  141.7391  158.4538 C.3     1  UNL1        0.0758
      2 C         138.6393  140.9780  159.6910 C.3     1  UNL1        0.0370
      3 C         139.6961  140.2658  160.4821 C.3     1  UNL1        0.0741
      4 N         141.1274  140.3147  160.0360 N.3     1  UNL1       -0.2688
      5 C         141.5019  141.0758  158.7988 C.3     1  UNL1        0.0741
      6 C         140.4451  141.7880  158.0077 C.3     1  UNL1        0.0370
      7 O         137.1515  140.1793  156.6933 O.2     1  UNL1       -0.2528
      8 C         137.0257  141.6713  156.7824 C.2     1  UNL1        0.3011
      9 N         135.9689  142.3835  155.9913 N.am    1  UNL1       -0.2782
     10 N         137.9569  142.4513  157.6627 N.am    1  UNL1       -0.2905
     11 H         135.8864  143.3628  156.0499 H       1  UNL1        0.1515
     12 H         137.8743  143.4305  157.7213 H       1  UNL1        0.1509
     13 C         135.0378  141.6037  155.1111 C.3     1  UNL1        0.2162
     14 C         133.7826  141.0142  155.6830 C.2     1  UNL1        0.3713
     15 N         132.3805  141.4128  155.3292 N.2     1  UNL1       -0.0334
     16 C         131.4405  140.5675  156.1366 C.2     1  UNL1        0.2318
     17 C         129.9430  140.5175  156.2055 C.2     1  UNL1        0.0498
     18 C         129.2666  139.5464  157.1271 C.2     1  UNL1       -0.0002
     19 C         130.0878  138.6253  157.9799 C.2     1  UNL1       -0.0172
     20 C         131.5854  138.6753  157.9111 C.3     1  UNL1        0.1037
     21 C         132.2617  139.6464  156.9894 C.2     1  UNL1        0.2175
     22 N         133.7092  139.9225  156.7090 N.2     1  UNL1       -0.0372
     23 C         142.1843  139.6025  160.8271 C.3     1  UNL1        0.1007
     24 C         141.8652  139.0632  162.1900 C.ar    1  UNL1        0.0129
     25 C         141.5225  137.6400  162.5170 C.ar    1  UNL1        0.0176
     26 C         141.2783  137.5497  163.9943 C.ar    1  UNL1        0.0799
     27 N         141.4702  138.9172  164.5802 N.ar    1  UNL1       -0.3038
     28 C         141.8329  139.8525  163.4651 C.ar    1  UNL1        0.0772
     29 C         141.3248  139.2847  166.0272 C.ar    1  UNL1        0.0640
     30 C         142.5181  139.2432  166.9351 C.ar    1  UNL1        0.0175
     31 C         142.3727  139.6107  168.3821 C.ar    1  UNL1        0.0053
     32 C         141.0341  140.0197  168.9212 C.ar    1  UNL1        0.0715
     33 C         139.8407  140.0612  168.0133 C.ar    1  UNL1        0.0053
     34 C         139.9861  139.6937  166.5663 C.ar    1  UNL1        0.0175
     35 C         140.8887  140.3872  170.3683 C.3     1  UNL1        0.4186
     36 F         140.7434  140.7547  171.8152 F       1  UNL1       -0.1659
     37 F         139.4399  140.0019  170.3206 F       1  UNL1       -0.1659
     38 F         142.3376  140.7725  170.4159 F       1  UNL1       -0.1659
@<TRIPOS>BOND
     1     7     8    2
     2     8     9   am
     3     9    13    1
     4    13    14    1
     5    14    15    2
     6    15    16    1
     7    16    17    2
     8    17    18    1
     9    18    19    2
    10    19    20    1
    11    20    21    1
    12    21    22    2
    13     8    10   am
    14    10     1    1
    15     1     2    1
    16     2     3    1
    17     3     4    1
    18     4    23    1
    19    23    24    1
    20    24    25   ar
    21    25    26   ar
    22    26    27   ar
    23    27    29    1
    24    29    30   ar
    25    30    31   ar
    26    31    32   ar
    27    32    35    1
    28    35    36    1
    29    35    37    1
    30    35    38    1
    31    32    33   ar
    32    33    34   ar
    33    27    28   ar
    34     4     5    1
    35     5     6    1
    36    22    14    1
    37     6     1    1
    38    21    16    1
    39    28    24   ar
    40    34    29   ar
    41     9    11    1
    42    10    12    1
@<TRIPOS>MOLECULE
*****
 38 42 0 0 0
SMALL
GASTEIGER

@<TRIPOS>ATOM
      1 C         142.5231  138.8553  158.6009 C.3     1  UNL1        0.0758
      2 C         141.1371  139.1920  158.1369 C.3     1  UNL1        0.0370
      3 C         139.9681  138.9852  159.0538 C.3     1  UNL1        0.0741
      4 N         140.1853  138.4417  160.4349 N.3     1  UNL1       -0.2688
      5 C         141.5714  138.1049  160.8991 C.3     1  UNL1        0.0741
      6 C         142.7403  138.3117  159.9821 C.3     1  UNL1        0.0370
      7 O         143.9082  141.5150  158.5127 O.2     1  UNL1       -0.2528
      8 C         144.3846  140.3920  157.6399 C.2     1  UNL1        0.3011
      9 N         145.5535  140.5988  156.7229 N.am    1  UNL1       -0.2782
     10 N         143.6920  139.0621  157.6840 N.am    1  UNL1       -0.2905
     11 H         145.8662  139.8617  156.1500 H       1  UNL1        0.1515
     12 H         144.0047  138.3250  157.1111 H       1  UNL1        0.1509
     13 C         146.2460  141.9286  156.6788 C.3     1  UNL1        0.2162
     14 C         147.4050  142.1402  155.7503 C.2     1  UNL1        0.3713
     15 N         147.3426  142.7753  154.3928 N.2     1  UNL1       -0.0334
     16 C         148.7289  142.7815  153.8198 C.2     1  UNL1        0.2318
     17 C         149.2729  143.2804  152.5140 C.2     1  UNL1        0.0498
     18 C         150.7361  143.1480  152.2116 C.2     1  UNL1       -0.0002
     19 C         151.6552  142.5168  153.2150 C.2     1  UNL1       -0.0172
     20 C         151.1112  142.0179  154.5207 C.3     1  UNL1        0.1037
     21 C         149.6480  142.1502  154.8231 C.2     1  UNL1        0.2175
     22 N         148.8298  141.7539  156.0162 N.2     1  UNL1       -0.0372
     23 C         139.0163  138.2349  161.3519 C.3     1  UNL1        0.1007
     24 C         138.7758  139.1859  162.4866 C.ar    1  UNL1        0.0129
     25 C         137.7728  140.3012  162.5046 C.ar    1  UNL1        0.0176
     26 C         137.8731  140.9933  163.8317 C.ar    1  UNL1        0.0799
     27 N         138.9380  140.3057  164.6337 N.ar    1  UNL1       -0.3038
     28 C         139.4959  139.1887  163.8024 C.ar    1  UNL1        0.0772
     29 C         139.3693  140.6710  166.0232 C.ar    1  UNL1        0.0640
     30 C         140.0588  141.9791  166.2749 C.ar    1  UNL1        0.0175
     31 C         140.4902  142.3444  167.6644 C.ar    1  UNL1        0.0053
     32 C         140.2319  141.4016  168.8021 C.ar    1  UNL1        0.0715
     33 C         139.5423  140.0934  168.5504 C.ar    1  UNL1        0.0053
     34 C         139.1111  139.7282  167.1609 C.ar    1  UNL1        0.0175
     35 C         140.6632  141.7669  170.1915 C.3     1  UNL1        0.4186
     36 F         141.0945  142.1322  171.5809 F       1  UNL1       -0.1659
     37 F         139.9155  140.5853  170.7343 F       1  UNL1       -0.1659
     38 F         141.4110  142.9485  169.6488 F       1  UNL1       -0.1659
@<TRIPOS>BOND
     1     7     8    2
     2     8     9   am
     3     9    13    1
     4    13    14    1
     5    14    15    2
     6    15    16    1
     7    16    17    2
     8    17    18    1
     9    18    19    2
    10    19    20    1
    11    20    21    1
    12    21    22    2
    13     8    10   am
    14    10     1    1
    15     1     2    1
    16     2     3    1
    17     3     4    1
    18     4    23    1
    19    23    24    1
    20    24    25   ar
    21    25    26   ar
    22    26    27   ar
    23    27    29    1
    24    29    30   ar
    25    30    31   ar
    26    31    32   ar
    27    32    35    1
    28    35    36    1
    29    35    37    1
    30    35    38    1
    31    32    33   ar
    32    33    34   ar
    33    27    28   ar
    34     4     5    1
    35     5     6    1
    36    22    14    1
    37     6     1    1
    38    21    16    1
    39    28    24   ar
    40    34    29   ar
    41     9    11    1
    42    10    12    1
@<TRIPOS>MOLECULE
*****
 38 42 0 0 0
SMALL
GASTEIGER

@<TRIPOS>ATOM
      1 C         139.6309  138.6121  157.8445 C.3     1  UNL1        0.0758
      2 C         139.6364  140.0131  157.3088 C.3     1  UNL1        0.0370
      3 C         139.7380  141.1759  158.2509 C.3     1  UNL1        0.0741
      4 N         139.8339  140.9376  159.7287 N.3     1  UNL1       -0.2688
      5 C         139.8284  139.5365  160.2645 C.3     1  UNL1        0.0741
      6 C         139.7268  138.3738  159.3224 C.3     1  UNL1        0.0370
      7 O         142.1214  137.3234  156.7783 O.2     1  UNL1       -0.2528
      8 C         140.7747  136.8050  156.3693 C.2     1  UNL1        0.3011
      9 N         140.6731  135.6422  155.4271 N.am    1  UNL1       -0.2782
     10 N         139.5293  137.4493  156.9023 N.am    1  UNL1       -0.2905
     11 H         139.7892  135.3019  155.1586 H       1  UNL1        0.1515
     12 H         138.6454  137.1090  156.6338 H       1  UNL1        0.1509
     13 C         141.9183  134.9979  154.8941 C.3     1  UNL1        0.2162
     14 C         142.5519  133.8602  155.6386 C.2     1  UNL1        0.3713
     15 N         142.0287  132.4565  155.7154 N.2     1  UNL1       -0.0334
     16 C         142.9733  131.6553  156.5614 C.2     1  UNL1        0.2318
     17 C         142.9684  130.2158  156.9831 C.2     1  UNL1        0.0498
     18 C         144.0706  129.6849  157.8510 C.2     1  UNL1       -0.0002
     19 C         145.1776  130.5934  158.2972 C.2     1  UNL1       -0.0172
     20 C         145.1825  132.0328  157.8754 C.3     1  UNL1        0.1037
     21 C         144.0803  132.5638  157.0075 C.2     1  UNL1        0.2175
     22 N         143.8199  133.9265  156.4373 N.2     1  UNL1       -0.0372
     23 C         139.9355  142.1004  160.6709 C.3     1  UNL1        0.1007
     24 C         139.3619  141.9981  162.0531 C.ar    1  UNL1        0.0129
     25 C         137.9122  142.1227  162.4176 C.ar    1  UNL1        0.0176
     26 C         137.7917  141.9548  163.9033 C.ar    1  UNL1        0.0799
     27 N         139.1670  141.7264  164.4570 N.ar    1  UNL1       -0.3038
     28 C         140.1374  141.7531  163.3135 C.ar    1  UNL1        0.0772
     29 C         139.5114  141.5093  165.9007 C.ar    1  UNL1        0.0640
     30 C         139.1019  140.2398  166.5867 C.ar    1  UNL1        0.0175
     31 C         139.4463  140.0227  168.0305 C.ar    1  UNL1        0.0053
     32 C         140.2001  141.0752  168.7882 C.ar    1  UNL1        0.0715
     33 C         140.6095  142.3448  168.1021 C.ar    1  UNL1        0.0053
     34 C         140.2651  142.5618  166.6584 C.ar    1  UNL1        0.0175
     35 C         140.5444  140.8581  170.2319 C.3     1  UNL1        0.4186
     36 F         140.8888  140.6410  171.6755 F       1  UNL1       -0.1659
     37 F         141.1429  139.5262  169.8889 F       1  UNL1       -0.1659
     38 F         139.9459  142.1901  170.5749 F       1  UNL1       -0.1659
@<TRIPOS>BOND
     1     7     8    2
     2     8     9   am
     3     9    13    1
     4    13    14    1
     5    14    15    2
     6    15    16    1
     7    16    17    2
     8    17    18    1
     9    18    19    2
    10    19    20    1
    11    20    21    1
    12    21    22    2
    13     8    10   am
    14    10     1    1
    15     1     2    1
    16     2     3    1
    17     3     4    1
    18     4    23    1
    19    23    24    1
    20    24    25   ar
    21    25    26   ar
    22    26    27   ar
    23    27    29    1
    24    29    30   ar
    25    30    31   ar
    26    31    32   ar
    27    32    35    1
    28    35    36    1
    29    35    37    1
    30    35    38    1
    31    32    33   ar
    32    33    34   ar
    33    27    28   ar
    34     4     5    1
    35     5     6    1
    36    22    14    1
    37     6     1    1
    38    21    16    1
    39    28    24   ar
    40    34    29   ar
    41     9    11    1
    42    10    12    1
