@<TRIPOS>MOLECULE
*****
 33 35 0 0 0
SMALL
GASTEIGER

@<TRIPOS>ATOM
      1 C         139.2295  140.0123  163.3350 C.ar    1  UNL1        0.2699
      2 C         139.2083  138.5642  162.9445 C.ar    1  UNL1        0.0787
      3 C         139.1643  137.5025  164.0032 C.ar    1  UNL1        0.0136
      4 C         139.1415  137.8889  165.4524 C.ar    1  UNL1        0.0787
      5 C         139.1628  139.3370  165.8429 C.ar    1  UNL1        0.2699
      6 N         139.2068  140.3987  164.7843 N.ar    1  UNL1       -0.1494
      7 C         139.2280  141.8468  165.1747 C.3     1  UNL1        0.4092
      8 C         139.3175  142.1357  161.2176 C.1     1  UNL1       -0.0482
      9 C         139.2735  141.0740  162.2763 C.1     1  UNL1        0.0064
     10 C         139.3615  143.1975  160.1590 C.3     1  UNL1        0.2183
     11 O         139.3195  144.6458  160.5471 O.3     1  UNL1       -0.3397
     12 C         140.5892  145.3681  160.8877 C.3     1  UNL1        0.1482
     13 C         141.1135  145.3413  162.2928 C.3     1  UNL1        0.0584
     14 C         145.7873  141.8460  163.6849 C.3     1  UNL1        0.0310
     15 C         144.6189  142.7198  163.3369 C.ar    1  UNL1       -0.0219
     16 C         144.1571  143.7733  164.2997 C.ar    1  UNL1       -0.0046
     17 C         142.9887  144.6471  163.9516 C.ar    1  UNL1       -0.0045
     18 C         142.2820  144.4675  162.6408 C.ar    1  UNL1       -0.0197
     19 C         142.7437  143.4141  161.6781 C.ar    1  UNL1       -0.0045
     20 C         143.9122  142.5402  162.0261 C.ar    1  UNL1       -0.0046
     21 C         139.1401  139.7234  167.2921 C.1     1  UNL1        0.0064
     22 C         139.1173  140.1098  168.7413 C.1     1  UNL1       -0.0482
     23 C         139.0946  140.4961  170.1906 C.3     1  UNL1        0.2183
     24 O         140.3117  140.2863  171.0418 O.3     1  UNL1       -0.3397
     25 C         141.4538  141.2560  170.9695 C.3     1  UNL1        0.1482
     26 C         142.7292  140.8630  170.2846 C.3     1  UNL1        0.0584
     27 C         142.7357  140.5926  168.8092 C.ar    1  UNL1       -0.0197
     28 C         142.6999  141.7345  167.8373 C.ar    1  UNL1       -0.0045
     29 C         142.7064  141.4642  166.3619 C.ar    1  UNL1       -0.0046
     30 C         142.7486  140.0519  165.8584 C.ar    1  UNL1       -0.0219
     31 C         142.7551  139.7815  164.3829 C.3     1  UNL1        0.0310
     32 C         142.7844  138.9099  166.8303 C.ar    1  UNL1       -0.0046
     33 C         142.7779  139.1802  168.3057 C.ar    1  UNL1       -0.0045
@<TRIPOS>UNITY_ATOM_ATTR
6 1
charge 1
@<TRIPOS>BOND
     1    14    15    1
     2    15    16   ar
     3    16    17   ar
     4    17    18   ar
     5    18    13    1
     6    13    12    1
     7    12    11    1
     8    11    10    1
     9    10     8    1
    10     8     9    3
    11     9     1    1
    12     1     2   ar
    13     2     3   ar
    14     3     4   ar
    15     4     5   ar
    16     5    21    1
    17    21    22    3
    18    22    23    1
    19    23    24    1
    20    24    25    1
    21    25    26    1
    22    26    27    1
    23    27    28   ar
    24    28    29   ar
    25    29    30   ar
    26    30    31    1
    27    30    32   ar
    28    32    33   ar
    29     5     6   ar
    30     6     7    1
    31    18    19   ar
    32    19    20   ar
    33    20    15   ar
    34     6     1   ar
    35    33    27   ar
@<TRIPOS>MOLECULE
*****
 33 35 0 0 0
SMALL
GASTEIGER

@<TRIPOS>ATOM
      1 C         139.2251  139.3787  165.6054 C.ar    1  UNL1        0.2699
      2 C         139.2075  137.9396  165.1828 C.ar    1  UNL1        0.0787
      3 C         139.2231  137.5857  163.7253 C.ar    1  UNL1        0.0136
      4 C         139.2562  138.6709  162.6903 C.ar    1  UNL1        0.0787
      5 C         139.2739  140.1101  163.1128 C.ar    1  UNL1        0.2699
      6 N         139.2583  140.4640  164.5704 N.ar    1  UNL1       -0.1494
      7 C         139.2759  141.9031  164.9930 C.3     1  UNL1        0.4092
      8 C         139.1940  140.0866  168.5205 C.1     1  UNL1       -0.0482
      9 C         139.2096  139.7326  167.0630 C.1     1  UNL1        0.0064
     10 C         139.1785  140.4405  169.9781 C.3     1  UNL1        0.2183
     11 O         140.3885  140.1809  170.8259 O.3     1  UNL1       -0.3397
     12 C         141.5108  141.1757  170.8556 C.3     1  UNL1        0.1482
     13 C         142.7963  140.8776  170.1423 C.3     1  UNL1        0.0584
     14 C         142.7494  139.6112  164.2777 C.3     1  UNL1        0.0310
     15 C         142.7611  139.9278  165.7438 C.ar    1  UNL1       -0.0219
     16 C         142.8397  138.8182  166.7501 C.ar    1  UNL1       -0.0046
     17 C         142.8515  139.1348  168.2163 C.ar    1  UNL1       -0.0045
     18 C         142.7845  140.5610  168.6762 C.ar    1  UNL1       -0.0197
     19 C         142.7059  141.6706  167.6699 C.ar    1  UNL1       -0.0045
     20 C         142.6942  141.3540  166.2037 C.ar    1  UNL1       -0.0046
     21 C         139.3070  141.1952  162.0778 C.1     1  UNL1        0.0064
     22 C         139.3402  142.2804  161.0429 C.1     1  UNL1       -0.0482
     23 C         139.3734  143.3657  160.0078 C.3     1  UNL1        0.2183
     24 O         139.4377  144.8034  160.4305 O.3     1  UNL1       -0.3397
     25 C         140.7337  145.3870  160.9098 C.3     1  UNL1        0.1482
     26 C         141.1437  145.2267  162.3437 C.3     1  UNL1        0.0584
     27 C         142.3180  144.3623  162.6958 C.ar    1  UNL1       -0.0197
     28 C         143.0913  144.6240  163.9542 C.ar    1  UNL1       -0.0045
     29 C         144.2655  143.7597  164.3064 C.ar    1  UNL1       -0.0046
     30 C         144.6666  142.6338  163.4001 C.ar    1  UNL1       -0.0219
     31 C         145.8409  141.7694  163.7522 C.3     1  UNL1        0.0310
     32 C         143.8933  142.3721  162.1416 C.ar    1  UNL1       -0.0046
     33 C         142.7191  143.2364  161.7895 C.ar    1  UNL1       -0.0045
@<TRIPOS>UNITY_ATOM_ATTR
6 1
charge 1
@<TRIPOS>BOND
     1    14    15    1
     2    15    16   ar
     3    16    17   ar
     4    17    18   ar
     5    18    13    1
     6    13    12    1
     7    12    11    1
     8    11    10    1
     9    10     8    1
    10     8     9    3
    11     9     1    1
    12     1     2   ar
    13     2     3   ar
    14     3     4   ar
    15     4     5   ar
    16     5    21    1
    17    21    22    3
    18    22    23    1
    19    23    24    1
    20    24    25    1
    21    25    26    1
    22    26    27    1
    23    27    28   ar
    24    28    29   ar
    25    29    30   ar
    26    30    31    1
    27    30    32   ar
    28    32    33   ar
    29     5     6   ar
    30     6     7    1
    31    18    19   ar
    32    19    20   ar
    33    20    15   ar
    34     6     1   ar
    35    33    27   ar
@<TRIPOS>MOLECULE
*****
 33 35 0 0 0
SMALL
GASTEIGER

@<TRIPOS>ATOM
      1 C         142.8257  139.0421  165.8672 C.ar    1  UNL1        0.2699
      2 C         144.1603  139.0544  165.1826 C.ar    1  UNL1        0.0787
      3 C         144.2347  139.0641  163.6845 C.ar    1  UNL1        0.0136
      4 C         142.9745  139.0614  162.8710 C.ar    1  UNL1        0.0787
      5 C         141.6398  139.0490  163.5556 C.ar    1  UNL1        0.2699
      6 N         141.5654  139.0394  165.0537 N.ar    1  UNL1       -0.1494
      7 C         140.2309  139.0270  165.7383 C.3     1  UNL1        0.4092
      8 C         142.6769  139.0227  168.8635 C.1     1  UNL1       -0.0482
      9 C         142.7513  139.0324  167.3653 C.1     1  UNL1        0.0064
     10 C         142.6025  139.0130  170.3616 C.3     1  UNL1        0.2183
     11 O         142.6556  140.3041  171.1235 O.3     1  UNL1       -0.3397
     12 C         141.9188  141.5069  170.6132 C.3     1  UNL1        0.1482
     13 C         142.6316  142.5199  169.7671 C.3     1  UNL1        0.0584
     14 C         141.8184  142.5694  163.8227 C.3     1  UNL1        0.0310
     15 C         142.0217  142.5570  165.3088 C.ar    1  UNL1       -0.0219
     16 C         140.8399  142.4519  166.2266 C.ar    1  UNL1       -0.0046
     17 C         141.0432  142.4396  167.7127 C.ar    1  UNL1       -0.0045
     18 C         142.4283  142.5322  168.2810 C.ar    1  UNL1       -0.0197
     19 C         143.6100  142.6373  167.3632 C.ar    1  UNL1       -0.0045
     20 C         143.4067  142.6497  165.8771 C.ar    1  UNL1       -0.0046
     21 C         140.3796  139.0464  162.7420 C.1     1  UNL1        0.0064
     22 C         139.1195  139.0437  161.9285 C.1     1  UNL1       -0.0482
     23 C         137.8592  139.0410  161.1149 C.3     1  UNL1        0.2183
     24 O         137.6730  140.0461  160.0172 O.3     1  UNL1       -0.3397
     25 C         138.7323  141.0752  159.7550 C.3     1  UNL1        0.1482
     26 C         138.4298  142.5307  159.9547 C.3     1  UNL1        0.0584
     27 C         138.4673  143.1224  161.3326 C.ar    1  UNL1       -0.0197
     28 C         139.2383  144.3838  161.5865 C.ar    1  UNL1       -0.0045
     29 C         139.2758  144.9754  162.9643 C.ar    1  UNL1       -0.0046
     30 C         138.5424  144.3057  164.0883 C.ar    1  UNL1       -0.0219
     31 C         138.5799  144.8973  165.4662 C.3     1  UNL1        0.0310
     32 C         137.7714  143.0443  163.8345 C.ar    1  UNL1       -0.0046
     33 C         137.7338  142.4526  162.4566 C.ar    1  UNL1       -0.0045
@<TRIPOS>UNITY_ATOM_ATTR
6 1
charge 1
@<TRIPOS>BOND
     1    14    15    1
     2    15    16   ar
     3    16    17   ar
     4    17    18   ar
     5    18    13    1
     6    13    12    1
     7    12    11    1
     8    11    10    1
     9    10     8    1
    10     8     9    3
    11     9     1    1
    12     1     2   ar
    13     2     3   ar
    14     3     4   ar
    15     4     5   ar
    16     5    21    1
    17    21    22    3
    18    22    23    1
    19    23    24    1
    20    24    25    1
    21    25    26    1
    22    26    27    1
    23    27    28   ar
    24    28    29   ar
    25    29    30   ar
    26    30    31    1
    27    30    32   ar
    28    32    33   ar
    29     5     6   ar
    30     6     7    1
    31    18    19   ar
    32    19    20   ar
    33    20    15   ar
    34     6     1   ar
    35    33    27   ar
@<TRIPOS>MOLECULE
*****
 33 35 0 0 0
SMALL
GASTEIGER

@<TRIPOS>ATOM
      1 C         139.3317  139.9125  161.1150 C.ar    1  UNL1        0.2699
      2 C         138.1977  138.9307  161.1016 C.ar    1  UNL1        0.0787
      3 C         138.1493  137.8268  162.1160 C.ar    1  UNL1        0.0136
      4 C         139.2349  137.7048  163.1439 C.ar    1  UNL1        0.0787
      5 C         140.3689  138.6866  163.1574 C.ar    1  UNL1        0.2699
      6 N         140.4173  139.7904  162.1429 N.ar    1  UNL1       -0.1494
      7 C         141.5513  140.7722  162.1563 C.3     1  UNL1        0.4092
      8 C         139.4284  142.1202  159.0860 C.1     1  UNL1       -0.0482
      9 C         139.3800  141.0163  160.1005 C.1     1  UNL1        0.0064
     10 C         139.4768  143.2240  158.0715 C.3     1  UNL1        0.2183
     11 O         140.1573  144.5189  158.4040 O.3     1  UNL1       -0.3397
     12 C         141.2545  144.5486  159.4263 C.3     1  UNL1        0.1482
     13 C         140.9657  145.0126  160.8232 C.3     1  UNL1        0.0584
     14 C         144.5356  143.3291  165.3422 C.3     1  UNL1        0.0310
     15 C         143.6431  143.7500  164.2124 C.ar    1  UNL1       -0.0219
     16 C         142.2968  144.3446  164.5017 C.ar    1  UNL1       -0.0046
     17 C         141.4043  144.7655  163.3720 C.ar    1  UNL1       -0.0045
     18 C         141.8581  144.5917  161.9529 C.ar    1  UNL1       -0.0197
     19 C         143.2045  143.9971  161.6636 C.ar    1  UNL1       -0.0045
     20 C         144.0970  143.5763  162.7934 C.ar    1  UNL1       -0.0046
     21 C         141.4545  138.5645  164.1853 C.1     1  UNL1        0.0064
     22 C         142.5401  138.4424  165.2131 C.1     1  UNL1       -0.0482
     23 C         143.6257  138.3203  166.2411 C.3     1  UNL1        0.2183
     24 O         143.3360  138.6350  167.6788 O.3     1  UNL1       -0.3397
     25 C         142.6522  139.9195  168.0424 C.3     1  UNL1        0.1482
     26 C         141.1691  139.9427  168.2657 C.3     1  UNL1        0.0584
     27 C         140.2481  140.3292  167.1465 C.ar    1  UNL1       -0.0197
     28 C         139.0280  139.5049  166.8607 C.ar    1  UNL1       -0.0045
     29 C         138.1070  139.8913  165.7416 C.ar    1  UNL1       -0.0046
     30 C         138.4062  141.1021  164.9083 C.ar    1  UNL1       -0.0219
     31 C         137.4852  141.4886  163.7891 C.3     1  UNL1        0.0310
     32 C         139.6264  141.9264  165.1941 C.ar    1  UNL1       -0.0046
     33 C         140.5473  141.5400  166.3132 C.ar    1  UNL1       -0.0045
@<TRIPOS>UNITY_ATOM_ATTR
6 1
charge 1
@<TRIPOS>BOND
     1    14    15    1
     2    15    16   ar
     3    16    17   ar
     4    17    18   ar
     5    18    13    1
     6    13    12    1
     7    12    11    1
     8    11    10    1
     9    10     8    1
    10     8     9    3
    11     9     1    1
    12     1     2   ar
    13     2     3   ar
    14     3     4   ar
    15     4     5   ar
    16     5    21    1
    17    21    22    3
    18    22    23    1
    19    23    24    1
    20    24    25    1
    21    25    26    1
    22    26    27    1
    23    27    28   ar
    24    28    29   ar
    25    29    30   ar
    26    30    31    1
    27    30    32   ar
    28    32    33   ar
    29     5     6   ar
    30     6     7    1
    31    18    19   ar
    32    19    20   ar
    33    20    15   ar
    34     6     1   ar
    35    33    27   ar
@<TRIPOS>MOLECULE
*****
 33 35 0 0 0
SMALL
GASTEIGER

@<TRIPOS>ATOM
      1 C         142.1311  139.1845  163.2388 C.ar    1  UNL1        0.2699
      2 C         143.5253  139.2649  162.6914 C.ar    1  UNL1        0.0787
      3 C         144.6985  139.2766  163.6260 C.ar    1  UNL1        0.0136
      4 C         144.4775  139.2079  165.1080 C.ar    1  UNL1        0.0787
      5 C         143.0832  139.1275  165.6555 C.ar    1  UNL1        0.2699
      6 N         141.9100  139.1158  164.7209 N.ar    1  UNL1       -0.1494
      7 C         140.5158  139.0354  165.2683 C.3     1  UNL1        0.4092
      8 C         139.7847  139.1612  161.3696 C.1     1  UNL1       -0.0482
      9 C         140.9579  139.1729  162.3042 C.1     1  UNL1        0.0064
     10 C         138.6115  139.1495  160.4350 C.3     1  UNL1        0.2183
     11 O         138.3357  140.3383  159.5626 O.3     1  UNL1       -0.3397
     12 C         139.3680  141.4166  159.4160 C.3     1  UNL1        0.1482
     13 C         138.9993  142.8477  159.6724 C.3     1  UNL1        0.0584
     14 C         138.5622  144.8705  165.3042 C.3     1  UNL1        0.0310
     15 C         138.6715  144.3648  163.8963 C.ar    1  UNL1       -0.0219
     16 C         137.7667  143.2667  163.4214 C.ar    1  UNL1       -0.0046
     17 C         137.8760  142.7610  162.0135 C.ar    1  UNL1       -0.0045
     18 C         138.8900  143.3534  161.0804 C.ar    1  UNL1       -0.0197
     19 C         139.7948  144.4515  161.5552 C.ar    1  UNL1       -0.0045
     20 C         139.6855  144.9572  162.9632 C.ar    1  UNL1       -0.0046
     21 C         142.8622  139.0588  167.1375 C.1     1  UNL1        0.0064
     22 C         142.6412  138.9901  168.6195 C.1     1  UNL1       -0.0482
     23 C         142.4202  138.9213  170.1016 C.3     1  UNL1        0.2183
     24 O         141.7232  140.0455  170.8088 O.3     1  UNL1       -0.3397
     25 C         142.3198  141.4217  170.8000 C.3     1  UNL1        0.1482
     26 C         141.6856  142.5089  169.9839 C.3     1  UNL1        0.0584
     27 C         141.8880  142.5463  168.4981 C.ar    1  UNL1       -0.0197
     28 C         143.2763  142.5742  167.9307 C.ar    1  UNL1       -0.0045
     29 C         143.4787  142.6117  166.4449 C.ar    1  UNL1       -0.0046
     30 C         142.2928  142.6213  165.5265 C.ar    1  UNL1       -0.0219
     31 C         142.4952  142.6587  164.0406 C.3     1  UNL1        0.0310
     32 C         140.9045  142.5934  166.0939 C.ar    1  UNL1       -0.0046
     33 C         140.7021  142.5559  167.5796 C.ar    1  UNL1       -0.0045
@<TRIPOS>UNITY_ATOM_ATTR
6 1
charge 1
@<TRIPOS>BOND
     1    14    15    1
     2    15    16   ar
     3    16    17   ar
     4    17    18   ar
     5    18    13    1
     6    13    12    1
     7    12    11    1
     8    11    10    1
     9    10     8    1
    10     8     9    3
    11     9     1    1
    12     1     2   ar
    13     2     3   ar
    14     3     4   ar
    15     4     5   ar
    16     5    21    1
    17    21    22    3
    18    22    23    1
    19    23    24    1
    20    24    25    1
    21    25    26    1
    22    26    27    1
    23    27    28   ar
    24    28    29   ar
    25    29    30   ar
    26    30    31    1
    27    30    32   ar
    28    32    33   ar
    29     5     6   ar
    30     6     7    1
    31    18    19   ar
    32    19    20   ar
    33    20    15   ar
    34     6     1   ar
    35    33    27   ar
@<TRIPOS>MOLECULE
*****
 33 35 0 0 0
SMALL
GASTEIGER

@<TRIPOS>ATOM
      1 C         143.7183  142.3100  162.4455 C.ar    1  UNL1        0.2699
      2 C         143.9672  143.7393  162.0647 C.ar    1  UNL1        0.0787
      3 C         144.0488  144.7952  163.1270 C.ar    1  UNL1        0.0136
      4 C         143.8815  144.4218  164.5700 C.ar    1  UNL1        0.0787
      5 C         143.6325  142.9925  164.9509 C.ar    1  UNL1        0.2699
      6 N         143.5509  141.9366  163.8887 N.ar    1  UNL1       -0.1494
      7 C         143.3019  140.5073  164.2695 C.3     1  UNL1        0.4092
      8 C         143.5550  140.1982  160.3210 C.1     1  UNL1       -0.0482
      9 C         143.6367  141.2541  161.3833 C.1     1  UNL1        0.0064
     10 C         143.4734  139.1423  159.2587 C.3     1  UNL1        0.2183
     11 O         142.1423  138.7588  158.6832 O.3     1  UNL1       -0.3397
     12 C         140.9155  139.5433  159.0430 C.3     1  UNL1        0.1482
     13 C         139.9113  138.9690  159.9978 C.3     1  UNL1        0.0584
     14 C         137.9520  142.2500  164.6234 C.3     1  UNL1        0.0310
     15 C         138.4418  141.4298  163.4670 C.ar    1  UNL1       -0.0219
     16 C         139.9082  141.3709  163.1571 C.ar    1  UNL1       -0.0046
     17 C         140.3981  140.5506  162.0007 C.ar    1  UNL1       -0.0045
     18 C         139.4215  139.7893  161.1542 C.ar    1  UNL1       -0.0197
     19 C         137.9551  139.8482  161.4641 C.ar    1  UNL1       -0.0045
     20 C         137.4652  140.6685  162.6205 C.ar    1  UNL1       -0.0046
     21 C         143.4652  142.6191  166.3940 C.1     1  UNL1        0.0064
     22 C         143.2978  142.2457  167.8371 C.1     1  UNL1       -0.0482
     23 C         143.1305  141.8723  169.2803 C.3     1  UNL1        0.2183
     24 O         142.6564  140.4979  169.6492 O.3     1  UNL1       -0.3397
     25 C         141.2042  140.2577  169.9377 C.3     1  UNL1        0.1482
     26 C         140.1591  140.7340  168.9728 C.3     1  UNL1        0.0584
     27 C         139.8456  139.9268  167.7480 C.ar    1  UNL1       -0.0197
     28 C         140.9342  139.5910  166.7722 C.ar    1  UNL1       -0.0045
     29 C         140.6207  138.7839  165.5474 C.ar    1  UNL1       -0.0046
     30 C         139.2187  138.3125  165.2983 C.ar    1  UNL1       -0.0219
     31 C         138.9052  137.5054  164.0735 C.3     1  UNL1        0.0310
     32 C         138.1301  138.6484  166.2741 C.ar    1  UNL1       -0.0046
     33 C         138.4435  139.4555  167.4990 C.ar    1  UNL1       -0.0045
@<TRIPOS>UNITY_ATOM_ATTR
6 1
charge 1
@<TRIPOS>BOND
     1    14    15    1
     2    15    16   ar
     3    16    17   ar
     4    17    18   ar
     5    18    13    1
     6    13    12    1
     7    12    11    1
     8    11    10    1
     9    10     8    1
    10     8     9    3
    11     9     1    1
    12     1     2   ar
    13     2     3   ar
    14     3     4   ar
    15     4     5   ar
    16     5    21    1
    17    21    22    3
    18    22    23    1
    19    23    24    1
    20    24    25    1
    21    25    26    1
    22    26    27    1
    23    27    28   ar
    24    28    29   ar
    25    29    30   ar
    26    30    31    1
    27    30    32   ar
    28    32    33   ar
    29     5     6   ar
    30     6     7    1
    31    18    19   ar
    32    19    20   ar
    33    20    15   ar
    34     6     1   ar
    35    33    27   ar
@<TRIPOS>MOLECULE
*****
 33 35 0 0 0
SMALL
GASTEIGER

@<TRIPOS>ATOM
      1 C         141.8104  140.0912  160.9558 C.ar    1  UNL1        0.2699
      2 C         142.1327  138.7512  160.3639 C.ar    1  UNL1        0.0787
      3 C         142.4693  137.5966  161.2604 C.ar    1  UNL1        0.0136
      4 C         142.4835  137.7821  162.7487 C.ar    1  UNL1        0.0787
      5 C         142.1612  139.1222  163.3407 C.ar    1  UNL1        0.2699
      6 N         141.8246  140.2767  162.4442 N.ar    1  UNL1       -0.1494
      7 C         141.5023  141.6168  163.0361 C.3     1  UNL1        0.4092
      8 C         141.1373  142.4004  159.1628 C.1     1  UNL1       -0.0482
      9 C         141.4739  141.2458  160.0593 C.1     1  UNL1        0.0064
     10 C         140.8007  143.5549  158.2663 C.3     1  UNL1        0.2183
     11 O         139.9479  144.6779  158.7779 O.3     1  UNL1       -0.3397
     12 C         140.5030  145.6435  159.7826 C.3     1  UNL1        0.1482
     13 C         139.6456  146.1211  160.9170 C.3     1  UNL1        0.0584
     14 C         139.9360  143.3922  166.2525 C.3     1  UNL1        0.0310
     15 C         139.8634  144.0744  164.9186 C.ar    1  UNL1       -0.0219
     16 C         138.5561  144.1553  164.1878 C.ar    1  UNL1       -0.0046
     17 C         138.4835  144.8375  162.8539 C.ar    1  UNL1       -0.0045
     18 C         139.7182  145.4389  162.2508 C.ar    1  UNL1       -0.0197
     19 C         141.0256  145.3580  162.9817 C.ar    1  UNL1       -0.0045
     20 C         141.0982  144.6758  164.3156 C.ar    1  UNL1       -0.0046
     21 C         142.1754  139.3076  164.8291 C.1     1  UNL1        0.0064
     22 C         142.1897  139.4931  166.3175 C.1     1  UNL1       -0.0482
     23 C         142.2039  139.6786  167.8060 C.3     1  UNL1        0.2183
     24 O         140.9194  139.6365  168.5793 O.3     1  UNL1       -0.3397
     25 C         139.6668  140.2085  167.9845 C.3     1  UNL1        0.1482
     26 C         138.6469  139.2988  167.3663 C.3     1  UNL1        0.0584
     27 C         138.6052  139.1207  165.8774 C.ar    1  UNL1       -0.0197
     28 C         138.8957  137.7783  165.2743 C.ar    1  UNL1       -0.0045
     29 C         138.8541  137.6002  163.7855 C.ar    1  UNL1       -0.0046
     30 C         138.5221  138.7643  162.8999 C.ar    1  UNL1       -0.0219
     31 C         138.4804  138.5862  161.4110 C.3     1  UNL1        0.0310
     32 C         138.2316  140.1067  163.5030 C.ar    1  UNL1       -0.0046
     33 C         138.2732  140.2848  164.9918 C.ar    1  UNL1       -0.0045
@<TRIPOS>UNITY_ATOM_ATTR
6 1
charge 1
@<TRIPOS>BOND
     1    14    15    1
     2    15    16   ar
     3    16    17   ar
     4    17    18   ar
     5    18    13    1
     6    13    12    1
     7    12    11    1
     8    11    10    1
     9    10     8    1
    10     8     9    3
    11     9     1    1
    12     1     2   ar
    13     2     3   ar
    14     3     4   ar
    15     4     5   ar
    16     5    21    1
    17    21    22    3
    18    22    23    1
    19    23    24    1
    20    24    25    1
    21    25    26    1
    22    26    27    1
    23    27    28   ar
    24    28    29   ar
    25    29    30   ar
    26    30    31    1
    27    30    32   ar
    28    32    33   ar
    29     5     6   ar
    30     6     7    1
    31    18    19   ar
    32    19    20   ar
    33    20    15   ar
    34     6     1   ar
    35    33    27   ar
@<TRIPOS>MOLECULE
*****
 33 35 0 0 0
SMALL
GASTEIGER

@<TRIPOS>ATOM
      1 C         143.0384  142.3219  164.3294 C.ar    1  UNL1        0.2699
      2 C         143.7730  143.5744  164.7055 C.ar    1  UNL1        0.0787
      3 C         143.6546  144.7994  163.8480 C.ar    1  UNL1        0.0136
      4 C         142.8018  144.7719  162.6144 C.ar    1  UNL1        0.0787
      5 C         142.0671  143.5193  162.2383 C.ar    1  UNL1        0.2699
      6 N         142.1854  142.2943  163.0958 N.ar    1  UNL1       -0.1494
      7 C         141.4509  141.0417  162.7197 C.3     1  UNL1        0.4092
      8 C         143.2750  139.8718  166.0445 C.1     1  UNL1       -0.0482
      9 C         143.1567  141.0969  165.1870 C.1     1  UNL1        0.0064
     10 C         143.3933  138.6468  166.9020 C.3     1  UNL1        0.2183
     11 O         143.0390  138.7135  168.3581 O.3     1  UNL1       -0.3397
     12 C         142.3563  139.9303  168.9088 C.3     1  UNL1        0.1482
     13 C         140.8753  140.0996  168.7415 C.3     1  UNL1        0.0584
     14 C         138.7226  143.3111  164.1532 C.3     1  UNL1        0.0310
     15 C         139.2608  142.5082  165.3002 C.ar    1  UNL1       -0.0219
     16 C         140.1221  143.1660  166.3373 C.ar    1  UNL1       -0.0046
     17 C         140.6602  142.3631  167.4843 C.ar    1  UNL1       -0.0045
     18 C         140.3371  140.9025  167.5944 C.ar    1  UNL1       -0.0197
     19 C         139.4758  140.2447  166.5574 C.ar    1  UNL1       -0.0045
     20 C         138.9377  141.0476  165.4103 C.ar    1  UNL1       -0.0046
     21 C         141.2143  143.4918  161.0047 C.1     1  UNL1        0.0064
     22 C         140.3614  143.4642  159.7711 C.1     1  UNL1       -0.0482
     23 C         139.5084  143.4367  158.5375 C.3     1  UNL1        0.2183
     24 O         138.1179  142.8776  158.5994 O.3     1  UNL1       -0.3397
     25 C         137.8459  141.4873  158.1065 C.3     1  UNL1        0.1482
     26 C         138.8273  140.3875  158.3847 C.3     1  UNL1        0.0584
     27 C         138.8527  139.7279  159.7316 C.ar    1  UNL1       -0.0197
     28 C         137.8412  140.1080  160.7720 C.ar    1  UNL1       -0.0045
     29 C         137.8665  139.4484  162.1189 C.ar    1  UNL1       -0.0046
     30 C         138.9032  138.4086  162.4255 C.ar    1  UNL1       -0.0219
     31 C         138.9285  137.7489  163.7724 C.3     1  UNL1        0.0310
     32 C         139.9146  138.0284  161.3850 C.ar    1  UNL1       -0.0046
     33 C         139.8894  138.6881  160.0381 C.ar    1  UNL1       -0.0045
@<TRIPOS>UNITY_ATOM_ATTR
6 1
charge 1
@<TRIPOS>BOND
     1    14    15    1
     2    15    16   ar
     3    16    17   ar
     4    17    18   ar
     5    18    13    1
     6    13    12    1
     7    12    11    1
     8    11    10    1
     9    10     8    1
    10     8     9    3
    11     9     1    1
    12     1     2   ar
    13     2     3   ar
    14     3     4   ar
    15     4     5   ar
    16     5    21    1
    17    21    22    3
    18    22    23    1
    19    23    24    1
    20    24    25    1
    21    25    26    1
    22    26    27    1
    23    27    28   ar
    24    28    29   ar
    25    29    30   ar
    26    30    31    1
    27    30    32   ar
    28    32    33   ar
    29     5     6   ar
    30     6     7    1
    31    18    19   ar
    32    19    20   ar
    33    20    15   ar
    34     6     1   ar
    35    33    27   ar
@<TRIPOS>MOLECULE
*****
 33 35 0 0 0
SMALL
GASTEIGER

@<TRIPOS>ATOM
      1 C         140.3916  141.0021  161.4096 C.ar    1  UNL1        0.2699
      2 C         139.4312  140.0063  160.8300 C.ar    1  UNL1        0.0787
      3 C         139.2968  138.6462  161.4482 C.ar    1  UNL1        0.0136
      4 C         140.1229  138.2819  162.6460 C.ar    1  UNL1        0.0787
      5 C         141.0834  139.2777  163.2257 C.ar    1  UNL1        0.2699
      6 N         141.2177  140.6378  162.6075 N.ar    1  UNL1       -0.1494
      7 C         142.1781  141.6335  163.1871 C.3     1  UNL1        0.4092
      8 C         140.6602  143.7222  160.1732 C.1     1  UNL1       -0.0482
      9 C         140.5259  142.3621  160.7914 C.1     1  UNL1        0.0064
     10 C         140.7945  145.0823  159.5550 C.3     1  UNL1        0.2183
     11 O         141.8933  145.3534  158.5704 O.3     1  UNL1       -0.3397
     12 C         142.3658  144.2631  157.6550 C.3     1  UNL1        0.1482
     13 C         143.5449  143.4194  158.0396 C.3     1  UNL1        0.0584
     14 C         142.7087  137.8086  159.9942 C.3     1  UNL1        0.0310
     15 C         142.9177  139.2113  159.5055 C.ar    1  UNL1       -0.0219
     16 C         142.1918  139.6967  158.2860 C.ar    1  UNL1       -0.0046
     17 C         142.4008  141.0994  157.7973 C.ar    1  UNL1       -0.0045
     18 C         143.3358  142.0167  158.5282 C.ar    1  UNL1       -0.0197
     19 C         144.0618  141.5313  159.7477 C.ar    1  UNL1       -0.0045
     20 C         143.8528  140.1286  160.2364 C.ar    1  UNL1       -0.0046
     21 C         141.9095  138.9134  164.4235 C.1     1  UNL1        0.0064
     22 C         142.7356  138.5491  165.6213 C.1     1  UNL1       -0.0482
     23 C         143.5617  138.1848  166.8192 C.3     1  UNL1        0.2183
     24 O         143.1838  138.7009  168.1760 O.3     1  UNL1       -0.3397
     25 C         142.4430  139.9988  168.3051 C.3     1  UNL1        0.1482
     26 C         140.9487  139.9997  168.4356 C.3     1  UNL1        0.0584
     27 C         140.0934  140.3683  167.2596 C.ar    1  UNL1       -0.0197
     28 C         140.2430  141.7151  166.6164 C.ar    1  UNL1       -0.0045
     29 C         139.3878  142.0838  165.4405 C.ar    1  UNL1       -0.0046
     30 C         138.3830  141.1057  164.9079 C.ar    1  UNL1       -0.0219
     31 C         137.5277  141.4744  163.7320 C.3     1  UNL1        0.0310
     32 C         138.2334  139.7589  165.5512 C.ar    1  UNL1       -0.0046
     33 C         139.0886  139.3902  166.7271 C.ar    1  UNL1       -0.0045
@<TRIPOS>UNITY_ATOM_ATTR
6 1
charge 1
@<TRIPOS>BOND
     1    14    15    1
     2    15    16   ar
     3    16    17   ar
     4    17    18   ar
     5    18    13    1
     6    13    12    1
     7    12    11    1
     8    11    10    1
     9    10     8    1
    10     8     9    3
    11     9     1    1
    12     1     2   ar
    13     2     3   ar
    14     3     4   ar
    15     4     5   ar
    16     5    21    1
    17    21    22    3
    18    22    23    1
    19    23    24    1
    20    24    25    1
    21    25    26    1
    22    26    27    1
    23    27    28   ar
    24    28    29   ar
    25    29    30   ar
    26    30    31    1
    27    30    32   ar
    28    32    33   ar
    29     5     6   ar
    30     6     7    1
    31    18    19   ar
    32    19    20   ar
    33    20    15   ar
    34     6     1   ar
    35    33    27   ar
