@<TRIPOS>MOLECULE
*****
 33 37 0 0 0
SMALL
GASTEIGER

@<TRIPOS>ATOM
      1 C         141.8962  139.1732  163.5130 C.3     1  UNL1        0.1201
      2 C         142.2836  138.1427  164.5318 C.3     1  UNL1        0.2250
      3 O         142.2873  138.4941  165.9900 O.3     1  UNL1       -0.4739
      4 C         141.9036  139.8760  166.4295 C.ar    1  UNL1        0.1358
      5 C         141.9074  140.2273  167.8878 C.ar    1  UNL1        0.0367
      6 C         141.5237  141.6092  168.3273 C.ar    1  UNL1        0.0044
      7 C         141.1362  142.6397  167.3084 C.ar    1  UNL1        0.0144
      8 C         141.1325  142.2884  165.8502 C.ar    1  UNL1        0.0468
      9 C         141.5162  140.9065  165.4107 C.ar    1  UNL1        0.0268
     10 C         141.5125  140.5551  163.9525 C.3     1  UNL1        0.0541
     11 N         140.7451  143.3189  164.8315 N.pl3   1  UNL1       -0.3048
     12 C         141.7933  144.2014  164.2212 C.3     1  UNL1        0.1081
     13 C         141.4058  145.2319  163.2024 C.3     1  UNL1        0.0938
     14 N         139.9702  145.3799  162.7939 N.3     1  UNL1       -0.2686
     15 C         139.5827  146.4105  161.7751 C.3     1  UNL1        0.0897
     16 C         138.9219  144.4974  163.4041 C.3     1  UNL1        0.0938
     17 C         139.3093  143.4669  164.4229 C.3     1  UNL1        0.1081
     18 C         143.1080  139.0860  161.2165 C.2     1  UNL1        0.2667
     19 O         144.3273  139.7015  161.8365 O.2     1  UNL1       -0.2684
     20 N         141.8925  138.8218  162.0547 N.am    1  UNL1       -0.2973
     21 H         141.0922  138.4178  161.6478 H       1  UNL1        0.1499
     22 C         143.8575  141.0959  158.7573 C.3     1  UNL1        0.0558
     23 C         143.4488  139.6585  158.6278 C.ar    1  UNL1        0.1046
     24 N         143.3128  138.8925  157.3453 N.ar    1  UNL1       -0.1506
     25 N         142.8842  137.4953  157.6830 N.ar    1  UNL1       -0.1481
     26 N         142.7554  137.3977  159.1744 N.ar    1  UNL1       -0.1421
     27 C         143.1043  138.7346  159.7582 C.ar    1  UNL1        0.1711
     28 C         142.6293  136.3897  156.7018 C.ar    1  UNL1        0.1029
     29 C         143.6492  135.3065  156.5107 C.ar    1  UNL1        0.0209
     30 C         143.3943  134.2010  155.5295 C.ar    1  UNL1        0.0016
     31 C         142.1195  134.1787  154.7394 C.ar    1  UNL1        0.0001
     32 C         141.0996  135.2619  154.9305 C.ar    1  UNL1        0.0016
     33 C         141.3545  136.3674  155.9117 C.ar    1  UNL1        0.0209
@<TRIPOS>BOND
     1    22    23    1
     2    23    24   ar
     3    24    25   ar
     4    25    28    1
     5    28    29   ar
     6    29    30   ar
     7    30    31   ar
     8    31    32   ar
     9    32    33   ar
    10    25    26   ar
    11    26    27   ar
    12    27    18    1
    13    18    19    2
    14    18    20   am
    15     1    20    1
    16     1     2    1
    17     2     3    1
    18     3     4    1
    19     4     5   ar
    20     5     6   ar
    21     6     7   ar
    22     7     8   ar
    23     8    11    1
    24    11    12    1
    25    12    13    1
    26    13    14    1
    27    14    15    1
    28    14    16    1
    29    16    17    1
    30     8     9   ar
    31     9    10    1
    32    27    23   ar
    33    10     1    1
    34    33    28   ar
    35     9     4   ar
    36    17    11    1
    37    20    21    1
@<TRIPOS>MOLECULE
*****
 33 37 0 0 0
SMALL
GASTEIGER

@<TRIPOS>ATOM
      1 C         139.6176  141.2170  160.3958 C.3     1  UNL1        0.1201
      2 C         138.6528  142.2359  159.8657 C.3     1  UNL1        0.2250
      3 O         138.0848  143.2788  160.7820 O.3     1  UNL1       -0.4739
      4 C         138.4815  143.3028  162.2284 C.ar    1  UNL1        0.1358
      5 C         137.9134  144.3457  163.1447 C.ar    1  UNL1        0.0367
      6 C         138.3101  144.3697  164.5911 C.ar    1  UNL1        0.0044
      7 C         139.2750  143.3508  165.1212 C.ar    1  UNL1        0.0144
      8 C         139.8431  142.3079  164.2048 C.ar    1  UNL1        0.0468
      9 C         139.4463  142.2839  162.7585 C.ar    1  UNL1        0.0268
     10 C         140.0144  141.2410  161.8422 C.3     1  UNL1        0.0541
     11 N         140.8079  141.2890  164.7349 N.pl3   1  UNL1       -0.3048
     12 C         142.2777  141.5876  164.7559 C.3     1  UNL1        0.1081
     13 C         143.2425  140.5687  165.2861 C.3     1  UNL1        0.0938
     14 N         142.7375  139.2512  165.7951 N.3     1  UNL1       -0.2686
     15 C         143.7023  138.2323  166.3252 C.3     1  UNL1        0.0897
     16 C         141.2677  138.9526  165.7741 C.3     1  UNL1        0.0938
     17 C         140.3029  139.9715  165.2440 C.3     1  UNL1        0.1081
     18 C         141.6469  140.1890  159.1406 C.2     1  UNL1        0.2667
     19 O         142.5399  141.2469  159.7180 O.2     1  UNL1       -0.2684
     20 N         140.1858  140.1741  159.4794 N.am    1  UNL1       -0.2973
     21 H         139.5996  139.4798  159.1005 H       1  UNL1        0.1499
     22 C         143.9569  140.6692  156.8861 C.3     1  UNL1        0.0558
     23 C         143.2768  139.3668  157.1880 C.ar    1  UNL1        0.1046
     24 N         143.5390  138.0565  156.5066 N.ar    1  UNL1       -0.1506
     25 N         142.6393  137.0258  157.1218 N.ar    1  UNL1       -0.1481
     26 N         141.8210  137.6993  158.1834 N.ar    1  UNL1       -0.1421
     27 C         142.2150  139.1461  158.2242 C.ar    1  UNL1        0.1711
     28 C         142.5701  135.5764  156.7422 C.ar    1  UNL1        0.1029
     29 C         143.4110  134.5695  157.4696 C.ar    1  UNL1        0.0209
     30 C         143.3417  133.1200  157.0899 C.ar    1  UNL1        0.0016
     31 C         142.4316  132.6774  155.9828 C.ar    1  UNL1        0.0001
     32 C         141.5907  133.6843  155.2554 C.ar    1  UNL1        0.0016
     33 C         141.6599  135.1337  155.6350 C.ar    1  UNL1        0.0209
@<TRIPOS>BOND
     1    22    23    1
     2    23    24   ar
     3    24    25   ar
     4    25    28    1
     5    28    29   ar
     6    29    30   ar
     7    30    31   ar
     8    31    32   ar
     9    32    33   ar
    10    25    26   ar
    11    26    27   ar
    12    27    18    1
    13    18    19    2
    14    18    20   am
    15     1    20    1
    16     1     2    1
    17     2     3    1
    18     3     4    1
    19     4     5   ar
    20     5     6   ar
    21     6     7   ar
    22     7     8   ar
    23     8    11    1
    24    11    12    1
    25    12    13    1
    26    13    14    1
    27    14    15    1
    28    14    16    1
    29    16    17    1
    30     8     9   ar
    31     9    10    1
    32    27    23   ar
    33    10     1    1
    34    33    28   ar
    35     9     4   ar
    36    17    11    1
    37    20    21    1
@<TRIPOS>MOLECULE
*****
 33 37 0 0 0
SMALL
GASTEIGER

@<TRIPOS>ATOM
      1 C         141.6172  138.6359  161.9272 C.3     1  UNL1        0.1201
      2 C         141.4568  137.2698  162.5255 C.3     1  UNL1        0.2250
      3 O         140.5562  137.0701  163.7082 O.3     1  UNL1       -0.4739
      4 C         139.8160  138.2365  164.2927 C.ar    1  UNL1        0.1358
      5 C         138.9154  138.0368  165.4756 C.ar    1  UNL1        0.0367
      6 C         138.1752  139.2032  166.0600 C.ar    1  UNL1        0.0044
      7 C         138.3357  140.5694  165.4616 C.ar    1  UNL1        0.0144
      8 C         139.2363  140.7690  164.2789 C.ar    1  UNL1        0.0468
      9 C         139.9764  139.6026  163.6944 C.ar    1  UNL1        0.0268
     10 C         140.8770  139.8023  162.5116 C.3     1  UNL1        0.0541
     11 N         139.3967  142.1351  163.6806 N.pl3   1  UNL1       -0.3048
     12 C         140.5093  143.0296  164.1410 C.3     1  UNL1        0.1081
     13 C         140.6697  144.3958  163.5426 C.3     1  UNL1        0.0938
     14 N         139.7175  144.8674  162.4839 N.3     1  UNL1       -0.2686
     15 C         139.8779  146.2335  161.8855 C.3     1  UNL1        0.0897
     16 C         138.6049  143.9729  162.0235 C.3     1  UNL1        0.0938
     17 C         138.4445  142.6068  162.6218 C.3     1  UNL1        0.1081
     18 C         141.9594  138.7555  159.3545 C.2     1  UNL1        0.2667
     19 O         140.5004  138.4756  159.1474 O.2     1  UNL1       -0.2684
     20 N         142.5178  138.8356  160.7443 N.am    1  UNL1       -0.2973
     21 H         143.4755  139.0193  160.8802 H       1  UNL1        0.1499
     22 C         142.2262  136.7580  156.7877 C.3     1  UNL1        0.0558
     23 C         142.9827  138.0370  156.9918 C.ar    1  UNL1        0.1046
     24 N         143.9946  138.6225  156.0520 N.ar    1  UNL1       -0.1506
     25 N         144.4974  139.9026  156.6510 N.ar    1  UNL1       -0.1481
     26 N         143.7962  140.1082  157.9611 N.ar    1  UNL1       -0.1421
     27 C         142.8601  138.9552  158.1716 C.ar    1  UNL1        0.1711
     28 C         145.5215  140.8166  156.0462 C.ar    1  UNL1        0.1029
     29 C         146.1461  141.8978  156.8775 C.ar    1  UNL1        0.0209
     30 C         147.1702  142.8117  156.2727 C.ar    1  UNL1        0.0016
     31 C         147.5697  142.6445  154.8366 C.ar    1  UNL1        0.0001
     32 C         146.9452  141.5633  154.0053 C.ar    1  UNL1        0.0016
     33 C         145.9211  140.6493  154.6101 C.ar    1  UNL1        0.0209
@<TRIPOS>BOND
     1    22    23    1
     2    23    24   ar
     3    24    25   ar
     4    25    28    1
     5    28    29   ar
     6    29    30   ar
     7    30    31   ar
     8    31    32   ar
     9    32    33   ar
    10    25    26   ar
    11    26    27   ar
    12    27    18    1
    13    18    19    2
    14    18    20   am
    15     1    20    1
    16     1     2    1
    17     2     3    1
    18     3     4    1
    19     4     5   ar
    20     5     6   ar
    21     6     7   ar
    22     7     8   ar
    23     8    11    1
    24    11    12    1
    25    12    13    1
    26    13    14    1
    27    14    15    1
    28    14    16    1
    29    16    17    1
    30     8     9   ar
    31     9    10    1
    32    27    23   ar
    33    10     1    1
    34    33    28   ar
    35     9     4   ar
    36    17    11    1
    37    20    21    1
@<TRIPOS>MOLECULE
*****
 33 37 0 0 0
SMALL
GASTEIGER

@<TRIPOS>ATOM
      1 C         139.9843  141.4768  160.4143 C.3     1  UNL1        0.1201
      2 C         138.9931  142.4443  159.8386 C.3     1  UNL1        0.2250
      3 O         138.2251  143.3596  160.7453 O.3     1  UNL1       -0.4739
      4 C         138.4482  143.3075  162.2277 C.ar    1  UNL1        0.1358
      5 C         137.6801  144.2229  163.1344 C.ar    1  UNL1        0.0367
      6 C         137.9032  144.1708  164.6168 C.ar    1  UNL1        0.0044
      7 C         138.8944  143.2032  165.1925 C.ar    1  UNL1        0.0144
      8 C         139.6625  142.2878  164.2858 C.ar    1  UNL1        0.0468
      9 C         139.4394  142.3400  162.8034 C.ar    1  UNL1        0.0268
     10 C         140.2074  141.4246  161.8967 C.3     1  UNL1        0.0541
     11 N         140.6537  141.3203  164.8614 N.pl3   1  UNL1       -0.3048
     12 C         142.0772  141.7426  165.0744 C.3     1  UNL1        0.1081
     13 C         143.0683  140.7750  165.6502 C.3     1  UNL1        0.0938
     14 N         142.6360  139.3852  166.0129 N.3     1  UNL1       -0.2686
     15 C         143.6272  138.4177  166.5886 C.3     1  UNL1        0.0897
     16 C         141.2125  138.9630  165.7999 C.3     1  UNL1        0.0938
     17 C         140.2214  139.9305  165.2242 C.3     1  UNL1        0.1081
     18 C         140.3025  139.1432  159.3174 C.2     1  UNL1        0.2667
     19 O         139.0844  138.6403  160.0339 O.2     1  UNL1       -0.2684
     20 N         140.7524  140.5614  159.5075 N.am    1  UNL1       -0.2973
     21 H         141.5519  140.8914  159.0372 H       1  UNL1        0.1499
     22 C         143.2422  137.8637  159.9261 C.3     1  UNL1        0.0558
     23 C         142.4218  137.6397  158.6905 C.ar    1  UNL1        0.1046
     24 N         142.8086  136.7882  157.5177 N.ar    1  UNL1       -0.1506
     25 N         141.6964  136.8501  156.5130 N.ar    1  UNL1       -0.1481
     26 N         140.6222  137.7398  157.0650 N.ar    1  UNL1       -0.1421
     27 C         141.0706  138.2278  158.4107 C.ar    1  UNL1        0.1711
     28 C         141.6641  136.1459  155.1890 C.ar    1  UNL1        0.1029
     29 C         141.7648  136.9348  153.9172 C.ar    1  UNL1        0.0209
     30 C         141.7325  136.2307  152.5932 C.ar    1  UNL1        0.0016
     31 C         141.5994  134.7375  152.5410 C.ar    1  UNL1        0.0001
     32 C         141.4987  133.9485  153.8128 C.ar    1  UNL1        0.0016
     33 C         141.5310  134.6527  155.1368 C.ar    1  UNL1        0.0209
@<TRIPOS>BOND
     1    22    23    1
     2    23    24   ar
     3    24    25   ar
     4    25    28    1
     5    28    29   ar
     6    29    30   ar
     7    30    31   ar
     8    31    32   ar
     9    32    33   ar
    10    25    26   ar
    11    26    27   ar
    12    27    18    1
    13    18    19    2
    14    18    20   am
    15     1    20    1
    16     1     2    1
    17     2     3    1
    18     3     4    1
    19     4     5   ar
    20     5     6   ar
    21     6     7   ar
    22     7     8   ar
    23     8    11    1
    24    11    12    1
    25    12    13    1
    26    13    14    1
    27    14    15    1
    28    14    16    1
    29    16    17    1
    30     8     9   ar
    31     9    10    1
    32    27    23   ar
    33    10     1    1
    34    33    28   ar
    35     9     4   ar
    36    17    11    1
    37    20    21    1
@<TRIPOS>MOLECULE
*****
 33 37 0 0 0
SMALL
GASTEIGER

@<TRIPOS>ATOM
      1 C         140.3963  139.0737  161.3249 C.3     1  UNL1        0.1201
      2 C         139.4982  137.8858  161.5044 C.3     1  UNL1        0.2250
      3 O         138.8669  137.6177  162.8384 O.3     1  UNL1       -0.4739
      4 C         139.1336  138.5375  163.9928 C.ar    1  UNL1        0.1358
      5 C         138.5022  138.2693  165.3268 C.ar    1  UNL1        0.0367
      6 C         138.7689  139.1891  166.4813 C.ar    1  UNL1        0.0044
      7 C         139.6670  140.3771  166.3018 C.ar    1  UNL1        0.0144
      8 C         140.2984  140.6452  164.9678 C.ar    1  UNL1        0.0468
      9 C         140.0316  139.7254  163.8133 C.ar    1  UNL1        0.0268
     10 C         140.6630  139.9936  162.4794 C.3     1  UNL1        0.0541
     11 N         141.1964  141.8332  164.7883 N.pl3   1  UNL1       -0.3048
     12 C         142.6624  141.7166  165.0839 C.3     1  UNL1        0.1081
     13 C         143.5604  142.9047  164.9044 C.3     1  UNL1        0.0938
     14 N         142.9925  144.2092  164.4294 N.3     1  UNL1       -0.2686
     15 C         143.8906  145.3972  164.2499 C.3     1  UNL1        0.0897
     16 C         141.5265  144.3257  164.1338 C.3     1  UNL1        0.0938
     17 C         140.6285  143.1378  164.3133 C.3     1  UNL1        0.1081
     18 C         142.2854  138.6248  159.5987 C.2     1  UNL1        0.2667
     19 O         142.9118  137.6395  160.5404 O.2     1  UNL1       -0.2684
     20 N         141.0277  139.3419  159.9909 N.am    1  UNL1       -0.2973
     21 H         140.6165  139.9886  159.3728 H       1  UNL1        0.1499
     22 C         141.5696  137.1098  156.7984 C.3     1  UNL1        0.0558
     23 C         142.5877  138.1967  156.9775 C.ar    1  UNL1        0.1046
     24 N         143.4556  138.7779  155.9010 N.ar    1  UNL1       -0.1506
     25 N         144.3211  139.8336  156.5229 N.ar    1  UNL1       -0.1481
     26 N         143.9880  139.9047  157.9838 N.ar    1  UNL1       -0.1421
     27 C         142.9168  138.8930  158.2647 C.ar    1  UNL1        0.1711
     28 C         145.3406  140.6711  155.8092 C.ar    1  UNL1        0.1029
     29 C         145.5587  140.4933  154.3358 C.ar    1  UNL1        0.0209
     30 C         146.5781  141.3307  153.6222 C.ar    1  UNL1        0.0016
     31 C         147.3795  142.3460  154.3819 C.ar    1  UNL1        0.0001
     32 C         147.1613  142.5237  155.8553 C.ar    1  UNL1        0.0016
     33 C         146.1419  141.6863  156.5689 C.ar    1  UNL1        0.0209
@<TRIPOS>BOND
     1    22    23    1
     2    23    24   ar
     3    24    25   ar
     4    25    28    1
     5    28    29   ar
     6    29    30   ar
     7    30    31   ar
     8    31    32   ar
     9    32    33   ar
    10    25    26   ar
    11    26    27   ar
    12    27    18    1
    13    18    19    2
    14    18    20   am
    15     1    20    1
    16     1     2    1
    17     2     3    1
    18     3     4    1
    19     4     5   ar
    20     5     6   ar
    21     6     7   ar
    22     7     8   ar
    23     8    11    1
    24    11    12    1
    25    12    13    1
    26    13    14    1
    27    14    15    1
    28    14    16    1
    29    16    17    1
    30     8     9   ar
    31     9    10    1
    32    27    23   ar
    33    10     1    1
    34    33    28   ar
    35     9     4   ar
    36    17    11    1
    37    20    21    1
@<TRIPOS>MOLECULE
*****
 33 37 0 0 0
SMALL
GASTEIGER

@<TRIPOS>ATOM
      1 C         143.7862  141.1540  160.3469 C.3     1  UNL1        0.1201
      2 C         144.5726  142.3851  160.0068 C.3     1  UNL1        0.2250
      3 O         144.5013  143.5903  160.8969 O.3     1  UNL1       -0.4739
      4 C         143.6434  143.5644  162.1271 C.ar    1  UNL1        0.1358
      5 C         143.5720  144.7697  163.0172 C.ar    1  UNL1        0.0367
      6 C         142.7142  144.7438  164.2474 C.ar    1  UNL1        0.0044
      7 C         141.9277  143.5126  164.5875 C.ar    1  UNL1        0.0144
      8 C         141.9990  142.3074  163.6974 C.ar    1  UNL1        0.0468
      9 C         142.8569  142.3333  162.4672 C.ar    1  UNL1        0.0268
     10 C         142.9283  141.1281  161.5771 C.3     1  UNL1        0.0541
     11 N         141.2126  141.0762  164.0375 N.pl3   1  UNL1       -0.3048
     12 C         139.8048  140.9249  163.5423 C.3     1  UNL1        0.1081
     13 C         139.0183  139.6937  163.8824 C.3     1  UNL1        0.0938
     14 N         139.6396  138.6139  164.7178 N.3     1  UNL1       -0.2686
     15 C         138.8531  137.3827  165.0580 C.3     1  UNL1        0.0897
     16 C         141.0474  138.7652  165.2131 C.3     1  UNL1        0.0938
     17 C         141.8339  139.9963  164.8730 C.3     1  UNL1        0.1081
     18 C         143.0063  139.8754  158.2240 C.2     1  UNL1        0.2667
     19 O         142.0837  141.0073  157.8811 O.2     1  UNL1       -0.2684
     20 N         143.8575  139.9487  159.4568 N.am    1  UNL1       -0.2973
     21 H         144.4630  139.2057  159.6818 H       1  UNL1        0.1499
     22 C         143.6569  139.8881  155.0262 C.3     1  UNL1        0.0558
     23 C         143.3767  138.6759  155.8640 C.ar    1  UNL1        0.1046
     24 N         143.3464  137.2568  155.3791 N.ar    1  UNL1       -0.1506
     25 N         143.0285  136.3738  156.5493 N.ar    1  UNL1       -0.1481
     26 N         142.8625  137.2473  157.7575 N.ar    1  UNL1       -0.1421
     27 C         143.0777  138.6700  157.3338 C.ar    1  UNL1        0.1711
     28 C         142.8995  134.8797  156.5171 C.ar    1  UNL1        0.1029
     29 C         141.8723  134.2345  155.6346 C.ar    1  UNL1        0.0209
     30 C         141.7432  132.7404  155.6024 C.ar    1  UNL1        0.0016
     31 C         142.6413  131.8916  156.4526 C.ar    1  UNL1        0.0001
     32 C         143.6685  132.5368  157.3350 C.ar    1  UNL1        0.0016
     33 C         143.7976  134.0308  157.3673 C.ar    1  UNL1        0.0209
@<TRIPOS>BOND
     1    22    23    1
     2    23    24   ar
     3    24    25   ar
     4    25    28    1
     5    28    29   ar
     6    29    30   ar
     7    30    31   ar
     8    31    32   ar
     9    32    33   ar
    10    25    26   ar
    11    26    27   ar
    12    27    18    1
    13    18    19    2
    14    18    20   am
    15     1    20    1
    16     1     2    1
    17     2     3    1
    18     3     4    1
    19     4     5   ar
    20     5     6   ar
    21     6     7   ar
    22     7     8   ar
    23     8    11    1
    24    11    12    1
    25    12    13    1
    26    13    14    1
    27    14    15    1
    28    14    16    1
    29    16    17    1
    30     8     9   ar
    31     9    10    1
    32    27    23   ar
    33    10     1    1
    34    33    28   ar
    35     9     4   ar
    36    17    11    1
    37    20    21    1
@<TRIPOS>MOLECULE
*****
 33 37 0 0 0
SMALL
GASTEIGER

@<TRIPOS>ATOM
      1 C         137.6632  141.5190  156.6919 C.3     1  UNL1        0.1201
      2 C         138.6030  142.2418  155.7731 C.3     1  UNL1        0.2250
      3 O         138.1407  142.6678  154.4111 O.3     1  UNL1       -0.4739
      4 C         136.7388  142.3708  153.9681 C.ar    1  UNL1        0.1358
      5 C         136.2766  142.7968  152.6060 C.ar    1  UNL1        0.0367
      6 C         134.8746  142.4999  152.1629 C.ar    1  UNL1        0.0044
      7 C         133.9349  141.7770  153.0819 C.ar    1  UNL1        0.0144
      8 C         134.3971  141.3510  154.4438 C.ar    1  UNL1        0.0468
      9 C         135.7990  141.6480  154.8869 C.ar    1  UNL1        0.0268
     10 C         136.2612  141.2220  156.2488 C.3     1  UNL1        0.0541
     11 N         133.4573  140.6282  155.3626 N.pl3   1  UNL1       -0.3048
     12 C         133.8425  139.2951  155.9322 C.3     1  UNL1        0.1081
     13 C         132.9027  138.5722  156.8511 C.3     1  UNL1        0.0938
     14 N         131.5777  139.1825  157.2003 N.3     1  UNL1       -0.2686
     15 C         130.6379  138.4596  158.1192 C.3     1  UNL1        0.0897
     16 C         131.1925  140.5156  156.6307 C.3     1  UNL1        0.0938
     17 C         132.1323  141.2384  155.7119 C.3     1  UNL1        0.1081
     18 C         138.8197  139.7754  158.2322 C.2     1  UNL1        0.2667
     19 O         139.0518  138.8837  157.0486 O.2     1  UNL1       -0.2684
     20 N         138.1254  141.0930  158.0539 N.am    1  UNL1       -0.2973
     21 H         137.9730  141.6782  158.8308 H       1  UNL1        0.1499
     22 C         141.7071  138.4322  158.9449 C.3     1  UNL1        0.0558
     23 C         140.6091  138.7320  159.9218 C.ar    1  UNL1        0.1046
     24 N         140.6454  138.4671  161.3978 N.ar    1  UNL1       -0.1506
     25 N         139.3406  138.9208  161.9824 N.ar    1  UNL1       -0.1481
     26 N         138.4979  139.4661  160.8677 N.ar    1  UNL1       -0.1421
     27 C         139.2819  139.3494  159.5942 C.ar    1  UNL1        0.1711
     28 C         138.9476  138.8428  163.4279 C.ar    1  UNL1        0.1029
     29 C         138.5077  140.0799  164.1533 C.ar    1  UNL1        0.0209
     30 C         138.1146  140.0020  165.5988 C.ar    1  UNL1        0.0016
     31 C         138.1616  138.6870  166.3189 C.ar    1  UNL1        0.0001
     32 C         138.6015  137.4499  165.5935 C.ar    1  UNL1        0.0016
     33 C         138.9946  137.5278  164.1480 C.ar    1  UNL1        0.0209
@<TRIPOS>BOND
     1    22    23    1
     2    23    24   ar
     3    24    25   ar
     4    25    28    1
     5    28    29   ar
     6    29    30   ar
     7    30    31   ar
     8    31    32   ar
     9    32    33   ar
    10    25    26   ar
    11    26    27   ar
    12    27    18    1
    13    18    19    2
    14    18    20   am
    15     1    20    1
    16     1     2    1
    17     2     3    1
    18     3     4    1
    19     4     5   ar
    20     5     6   ar
    21     6     7   ar
    22     7     8   ar
    23     8    11    1
    24    11    12    1
    25    12    13    1
    26    13    14    1
    27    14    15    1
    28    14    16    1
    29    16    17    1
    30     8     9   ar
    31     9    10    1
    32    27    23   ar
    33    10     1    1
    34    33    28   ar
    35     9     4   ar
    36    17    11    1
    37    20    21    1
@<TRIPOS>MOLECULE
*****
 33 37 0 0 0
SMALL
GASTEIGER

@<TRIPOS>ATOM
      1 C         142.8711  139.4703  161.5227 C.3     1  UNL1        0.1201
      2 C         143.5795  138.9034  162.7171 C.3     1  UNL1        0.2250
      3 O         144.1059  139.8196  163.7817 O.3     1  UNL1       -0.4739
      4 C         143.9239  141.3029  163.6518 C.ar    1  UNL1        0.1358
      5 C         144.4504  142.2191  164.7164 C.ar    1  UNL1        0.0367
      6 C         144.2684  143.7024  164.5865 C.ar    1  UNL1        0.0044
      7 C         143.5600  144.2694  163.3920 C.ar    1  UNL1        0.0144
      8 C         143.0336  143.3531  162.3275 C.ar    1  UNL1        0.0468
      9 C         143.2156  141.8698  162.4573 C.ar    1  UNL1        0.0268
     10 C         142.6892  140.9536  161.3928 C.3     1  UNL1        0.0541
     11 N         142.3252  143.9201  161.1330 N.pl3   1  UNL1       -0.3048
     12 C         142.8259  143.6193  159.7514 C.3     1  UNL1        0.1081
     13 C         142.1175  144.1863  158.5570 C.3     1  UNL1        0.0938
     14 N         140.9085  145.0541  158.7441 N.3     1  UNL1       -0.2686
     15 C         140.2000  145.6211  157.5496 C.3     1  UNL1        0.0897
     16 C         140.4078  145.3549  160.1257 C.3     1  UNL1        0.0938
     17 C         141.1161  144.7879  161.3201 C.3     1  UNL1        0.1081
     18 C         142.9535  138.5692  159.0872 C.2     1  UNL1        0.2667
     19 O         144.0887  139.5006  158.7810 O.2     1  UNL1       -0.2684
     20 N         142.3447  138.5541  160.4580 N.am    1  UNL1       -0.2973
     21 H         141.5996  137.9427  160.6590 H       1  UNL1        0.1499
     22 C         140.1454  138.9283  157.4640 C.3     1  UNL1        0.0558
     23 C         141.1363  137.8180  157.2765 C.ar    1  UNL1        0.1046
     24 N         141.0105  136.6778  156.3100 N.ar    1  UNL1       -0.1506
     25 N         142.2235  135.8080  156.4588 N.ar    1  UNL1       -0.1481
     26 N         143.0990  136.4107  157.5173 N.ar    1  UNL1       -0.1421
     27 C         142.4270  137.6529  158.0226 C.ar    1  UNL1        0.1711
     28 C         142.5106  134.5555  155.6850 C.ar    1  UNL1        0.1029
     29 C         143.5324  133.5800  156.1893 C.ar    1  UNL1        0.0209
     30 C         143.8195  132.3275  155.4154 C.ar    1  UNL1        0.0016
     31 C         143.0849  132.0505  154.1373 C.ar    1  UNL1        0.0001
     32 C         142.0631  133.0261  153.6330 C.ar    1  UNL1        0.0016
     33 C         141.7760  134.2786  154.4068 C.ar    1  UNL1        0.0209
@<TRIPOS>BOND
     1    22    23    1
     2    23    24   ar
     3    24    25   ar
     4    25    28    1
     5    28    29   ar
     6    29    30   ar
     7    30    31   ar
     8    31    32   ar
     9    32    33   ar
    10    25    26   ar
    11    26    27   ar
    12    27    18    1
    13    18    19    2
    14    18    20   am
    15     1    20    1
    16     1     2    1
    17     2     3    1
    18     3     4    1
    19     4     5   ar
    20     5     6   ar
    21     6     7   ar
    22     7     8   ar
    23     8    11    1
    24    11    12    1
    25    12    13    1
    26    13    14    1
    27    14    15    1
    28    14    16    1
    29    16    17    1
    30     8     9   ar
    31     9    10    1
    32    27    23   ar
    33    10     1    1
    34    33    28   ar
    35     9     4   ar
    36    17    11    1
    37    20    21    1
@<TRIPOS>MOLECULE
*****
 33 37 0 0 0
SMALL
GASTEIGER

@<TRIPOS>ATOM
      1 C         142.0999  142.1748  159.4481 C.3     1  UNL1        0.1201
      2 C         142.3442  143.5115  158.8130 C.3     1  UNL1        0.2250
      3 O         141.7474  144.7486  159.4159 O.3     1  UNL1       -0.4739
      4 C         140.9063  144.6488  160.6539 C.ar    1  UNL1        0.1358
      5 C         140.3095  145.8860  161.2568 C.ar    1  UNL1        0.0367
      6 C         139.4685  145.7863  162.4949 C.ar    1  UNL1        0.0044
      7 C         139.2242  144.4494  163.1300 C.ar    1  UNL1        0.0144
      8 C         139.8210  143.2124  162.5271 C.ar    1  UNL1        0.0468
      9 C         140.6621  143.3121  161.2891 C.ar    1  UNL1        0.0268
     10 C         141.2589  142.0751  160.6862 C.3     1  UNL1        0.0541
     11 N         139.5768  141.8757  163.1622 N.pl3   1  UNL1       -0.3048
     12 C         138.3786  141.0648  162.7662 C.3     1  UNL1        0.1081
     13 C         138.1344  139.7280  163.4014 C.3     1  UNL1        0.0938
     14 N         139.0884  139.2021  164.4325 N.3     1  UNL1       -0.2686
     15 C         138.8442  137.8653  165.0677 C.3     1  UNL1        0.0897
     16 C         140.2866  140.0129  164.8285 C.3     1  UNL1        0.0938
     17 C         140.5309  141.3497  164.1934 C.3     1  UNL1        0.1081
     18 C         141.9493  140.1843  157.7852 C.2     1  UNL1        0.2667
     19 O         140.6050  140.6679  157.3281 O.2     1  UNL1       -0.2684
     20 N         142.6967  140.9377  158.8452 N.am    1  UNL1       -0.2973
     21 H         143.5790  140.6202  159.1453 H       1  UNL1        0.1499
     22 C         144.6008  140.0627  155.8867 C.3     1  UNL1        0.0558
     23 C         143.7649  138.8913  156.3097 C.ar    1  UNL1        0.1046
     24 N         144.0009  137.4583  155.9343 N.ar    1  UNL1       -0.1506
     25 N         142.9280  136.6285  156.5750 N.ar    1  UNL1       -0.1481
     26 N         142.0288  137.5487  157.3463 N.ar    1  UNL1       -0.1421
     27 C         142.5461  138.9471  157.1823 C.ar    1  UNL1        0.1711
     28 C         142.7802  135.1400  156.4638 C.ar    1  UNL1        0.1029
     29 C         143.6495  134.2364  157.2871 C.ar    1  UNL1        0.0209
     30 C         143.5017  132.7479  157.1759 C.ar    1  UNL1        0.0016
     31 C         142.4845  132.1629  156.2415 C.ar    1  UNL1        0.0001
     32 C         141.6152  133.0665  155.4182 C.ar    1  UNL1        0.0016
     33 C         141.7630  134.5551  155.5294 C.ar    1  UNL1        0.0209
@<TRIPOS>BOND
     1    22    23    1
     2    23    24   ar
     3    24    25   ar
     4    25    28    1
     5    28    29   ar
     6    29    30   ar
     7    30    31   ar
     8    31    32   ar
     9    32    33   ar
    10    25    26   ar
    11    26    27   ar
    12    27    18    1
    13    18    19    2
    14    18    20   am
    15     1    20    1
    16     1     2    1
    17     2     3    1
    18     3     4    1
    19     4     5   ar
    20     5     6   ar
    21     6     7   ar
    22     7     8   ar
    23     8    11    1
    24    11    12    1
    25    12    13    1
    26    13    14    1
    27    14    15    1
    28    14    16    1
    29    16    17    1
    30     8     9   ar
    31     9    10    1
    32    27    23   ar
    33    10     1    1
    34    33    28   ar
    35     9     4   ar
    36    17    11    1
    37    20    21    1
