@<TRIPOS>MOLECULE
*****
 43 47 0 0 0
SMALL
GASTEIGER

@<TRIPOS>ATOM
      1 C         142.7449  141.0524  167.0337 C.3     1  UNL1        0.0543
      2 C         143.1598  142.4474  166.6708 C.3     1  UNL1        0.0162
      3 C         143.8210  142.7139  165.3511 C.3     1  UNL1        0.0104
      4 C         144.0673  141.5854  164.3942 C.3     1  UNL1        0.0768
      5 C         143.6525  140.1902  164.7570 C.3     1  UNL1        0.0095
      6 C         143.4419  138.7091  164.6485 C.3     1  UNL1        0.0005
      7 C         144.2405  139.9424  163.3996 C.3     1  UNL1        0.0005
      8 C         142.9913  139.9237  166.0768 C.3     1  UNL1        0.0162
      9 C         144.7286  141.8519  163.0744 C.2     1  UNL1        0.2251
     10 O         146.2127  141.6868  162.9322 O.2     1  UNL1       -0.2749
     11 N         143.9057  142.2834  161.8969 N.am    1  UNL1       -0.2795
     12 C         142.4216  142.4485  162.0391 C.3     1  UNL1        0.0942
     13 C         141.5987  142.8800  160.8615 C.3     1  UNL1        0.0343
     14 C         142.2599  143.1465  159.5418 C.3     1  UNL1        0.0911
     15 C         143.7441  142.9815  159.3996 C.3     1  UNL1        0.0343
     16 C         144.5669  142.5499  160.5771 C.3     1  UNL1        0.0942
     17 C         140.8334  143.4394  159.1823 C.2     1  UNL1        0.2286
     18 O         140.3168  144.8461  159.2491 O.2     1  UNL1       -0.2746
     19 N         139.9235  142.3258  158.7560 N.am    1  UNL1       -0.2793
     20 C         138.4811  142.4650  158.3688 C.3     1  UNL1        0.0935
     21 C         137.9623  141.1026  158.0156 C.3     1  UNL1        0.0233
     22 C         139.0842  140.1213  158.1846 C.3     1  UNL1        0.0233
     23 C         140.2963  140.8773  158.6422 C.3     1  UNL1        0.0935
     24 C         142.4257  143.5148  158.0972 C.ar    1  UNL1       -0.0145
     25 C         142.8645  142.4791  157.1048 C.ar    1  UNL1       -0.0038
     26 C         143.0303  142.8474  155.6601 C.ar    1  UNL1       -0.0003
     27 C         142.7574  144.2512  155.2079 C.ar    1  UNL1       -0.0000
     28 C         142.3186  145.2869  156.2003 C.ar    1  UNL1       -0.0003
     29 C         142.1528  144.9187  157.6450 C.ar    1  UNL1       -0.0038
     30 N         142.0837  140.7858  168.3535 N.3     1  UNL1       -0.2916
     31 H         142.5257  139.9524  168.7413 H       1  UNL1        0.1236
     32 C         140.6022  140.5602  168.4181 C.3     1  UNL1        0.1445
     33 C         138.1250  140.7933  164.6685 C.ar    1  UNL1        0.1387
     34 C         138.8905  141.9949  165.1376 C.ar    1  UNL1        0.0366
     35 C         139.7163  141.9172  166.3874 C.ar    1  UNL1        0.0003
     36 C         139.7765  140.6379  167.1682 C.ar    1  UNL1       -0.0023
     37 C         139.0110  139.4363  166.6992 C.ar    1  UNL1        0.0003
     38 C         138.1853  139.5140  165.4493 C.ar    1  UNL1        0.0366
     39 C         137.9645  140.8127  162.0755 C.3     1  UNL1        0.2525
     40 O         137.2993  140.8710  163.4186 O.3     1  UNL1       -0.4714
     41 C         139.9464  140.2568  169.7326 C.3     1  UNL1        0.3367
     42 F         138.5652  140.7677  170.0172 F       1  UNL1       -0.1965
     43 F         140.6720  139.4425  170.7625 F       1  UNL1       -0.1965
@<TRIPOS>BOND
     1    39    40    1
     2    40    33    1
     3    33    34   ar
     4    34    35   ar
     5    35    36   ar
     6    36    32    1
     7    32    30    1
     8     1    30    1
     9     1     2    1
    10     2     3    1
    11     3     4    1
    12     4     9    1
    13     9    10    2
    14     9    11   am
    15    11    12    1
    16    12    13    1
    17    13    14    1
    18    14    17    1
    19    17    18    2
    20    17    19   am
    21    19    20    1
    22    20    21    1
    23    21    22    1
    24    22    23    1
    25    14    24    1
    26    24    25   ar
    27    25    26   ar
    28    26    27   ar
    29    27    28   ar
    30    28    29   ar
    31    14    15    1
    32    15    16    1
    33     4     5    1
    34     5     6    1
    35     5     7    1
    36     5     8    1
    37    32    41    1
    38    41    42    1
    39    41    43    1
    40    36    37   ar
    41    37    38   ar
    42    38    33   ar
    43     8     1    1
    44    16    11    1
    45    23    19    1
    46    29    24   ar
    47    30    31    1
@<TRIPOS>MOLECULE
*****
 43 47 0 0 0
SMALL
GASTEIGER

@<TRIPOS>ATOM
      1 C         141.2875  142.5767  166.4404 C.3     1  UNL1        0.0543
      2 C         142.3328  142.4856  165.3685 C.3     1  UNL1        0.0162
      3 C         142.1098  143.1545  164.0446 C.3     1  UNL1        0.0104
      4 C         140.8415  143.9145  163.7925 C.3     1  UNL1        0.0768
      5 C         139.7960  144.0057  164.8644 C.3     1  UNL1        0.0095
      6 C         138.5192  144.3735  165.5605 C.3     1  UNL1        0.0005
      7 C         139.1296  144.8023  163.7822 C.3     1  UNL1        0.0005
      8 C         140.0191  143.3368  166.1884 C.3     1  UNL1        0.0162
      9 C         140.6184  144.5834  162.4686 C.2     1  UNL1        0.2251
     10 O         140.8246  146.0629  162.3316 O.2     1  UNL1       -0.2749
     11 N         140.1892  143.7729  161.2816 N.am    1  UNL1       -0.2795
     12 C         139.9830  142.2935  161.4187 C.3     1  UNL1        0.0942
     13 C         139.5538  141.4830  160.2317 C.3     1  UNL1        0.0343
     14 C         139.3308  142.1519  158.9078 C.3     1  UNL1        0.0911
     15 C         139.5370  143.6314  158.7708 C.3     1  UNL1        0.0343
     16 C         139.9662  144.4418  159.9577 C.3     1  UNL1        0.0942
     17 C         139.0082  140.7337  158.5407 C.2     1  UNL1        0.2286
     18 O         137.5800  140.2777  158.4925 O.2     1  UNL1       -0.2746
     19 N         140.1138  139.7715  158.2219 N.am    1  UNL1       -0.2793
     20 C         139.9460  138.3305  157.8405 C.3     1  UNL1        0.0935
     21 C         141.3099  137.7497  157.6113 C.3     1  UNL1        0.0233
     22 C         142.3207  138.8318  157.8511 C.3     1  UNL1        0.0233
     23 C         141.5815  140.0813  158.2284 C.3     1  UNL1        0.0935
     24 C         138.9957  142.3283  157.4564 C.ar    1  UNL1       -0.0145
     25 C         137.5719  142.5426  157.0360 C.ar    1  UNL1       -0.0038
     26 C         137.2368  142.7190  155.5845 C.ar    1  UNL1       -0.0003
     27 C         138.3255  142.6810  154.5535 C.ar    1  UNL1       -0.0000
     28 C         139.7494  142.4667  154.9739 C.ar    1  UNL1       -0.0003
     29 C         140.0845  142.2903  156.4253 C.ar    1  UNL1       -0.0038
     30 N         141.5106  141.9078  167.7643 N.3     1  UNL1       -0.2916
     31 H         142.5015  142.0107  167.9830 H       1  UNL1        0.1236
     32 C         141.1778  140.4554  167.9363 C.3     1  UNL1        0.1445
     33 C         139.2702  138.1693  164.5621 C.ar    1  UNL1        0.1387
     34 C         140.7643  138.2151  164.6867 C.ar    1  UNL1        0.0366
     35 C         141.4002  138.9771  165.8114 C.ar    1  UNL1        0.0003
     36 C         140.5419  139.6933  166.8116 C.ar    1  UNL1       -0.0023
     37 C         139.0478  139.6475  166.6871 C.ar    1  UNL1        0.0003
     38 C         138.4120  138.8854  165.5623 C.ar    1  UNL1        0.0366
     39 C         138.3195  138.1008  162.1453 C.3     1  UNL1        0.2525
     40 O         138.6344  137.4072  163.4374 O.3     1  UNL1       -0.4714
     41 C         141.4808  139.7650  169.2330 C.3     1  UNL1        0.3367
     42 F         142.6510  138.8316  169.3301 F       1  UNL1       -0.1965
     43 F         140.6137  140.0080  170.4327 F       1  UNL1       -0.1965
@<TRIPOS>BOND
     1    39    40    1
     2    40    33    1
     3    33    34   ar
     4    34    35   ar
     5    35    36   ar
     6    36    32    1
     7    32    30    1
     8     1    30    1
     9     1     2    1
    10     2     3    1
    11     3     4    1
    12     4     9    1
    13     9    10    2
    14     9    11   am
    15    11    12    1
    16    12    13    1
    17    13    14    1
    18    14    17    1
    19    17    18    2
    20    17    19   am
    21    19    20    1
    22    20    21    1
    23    21    22    1
    24    22    23    1
    25    14    24    1
    26    24    25   ar
    27    25    26   ar
    28    26    27   ar
    29    27    28   ar
    30    28    29   ar
    31    14    15    1
    32    15    16    1
    33     4     5    1
    34     5     6    1
    35     5     7    1
    36     5     8    1
    37    32    41    1
    38    41    42    1
    39    41    43    1
    40    36    37   ar
    41    37    38   ar
    42    38    33   ar
    43     8     1    1
    44    16    11    1
    45    23    19    1
    46    29    24   ar
    47    30    31    1
@<TRIPOS>MOLECULE
*****
 43 47 0 0 0
SMALL
GASTEIGER

@<TRIPOS>ATOM
      1 C         143.5734  135.7969  155.8825 C.3     1  UNL1        0.0543
      2 C         142.3797  135.8982  156.7851 C.3     1  UNL1        0.0162
      3 C         141.9067  137.2418  157.2552 C.3     1  UNL1        0.0104
      4 C         142.6275  138.4841  156.8227 C.3     1  UNL1        0.0768
      5 C         143.8213  138.3829  155.9201 C.3     1  UNL1        0.0095
      6 C         144.9920  138.7983  155.0794 C.3     1  UNL1        0.0005
      7 C         143.7549  139.8708  156.0982 C.3     1  UNL1        0.0005
      8 C         144.2943  137.0393  155.4500 C.3     1  UNL1        0.0162
      9 C         142.1545  139.8278  157.2928 C.2     1  UNL1        0.2251
     10 O         141.2657  140.6591  156.4157 O.2     1  UNL1       -0.2749
     11 N         142.5702  140.3401  158.6399 N.am    1  UNL1       -0.2795
     12 C         143.4589  139.5088  159.5169 C.3     1  UNL1        0.0942
     13 C         143.8746  140.0211  160.8640 C.3     1  UNL1        0.0343
     14 C         143.4016  141.3647  161.3341 C.3     1  UNL1        0.0911
     15 C         142.5129  142.1960  160.4570 C.3     1  UNL1        0.0343
     16 C         142.0972  141.6837  159.1100 C.3     1  UNL1        0.0942
     17 C         144.2255  140.9501  162.5170 C.2     1  UNL1        0.2286
     18 O         145.6134  141.4916  162.6913 O.2     1  UNL1       -0.2746
     19 N         143.6614  139.9938  163.5257 N.am    1  UNL1       -0.2793
     20 C         144.3629  139.4910  164.7525 C.3     1  UNL1        0.0935
     21 C         143.4318  138.5589  165.4697 C.3     1  UNL1        0.0233
     22 C         142.1548  138.4857  164.6860 C.3     1  UNL1        0.0233
     23 C         142.2967  139.3725  163.4846 C.3     1  UNL1        0.0935
     24 C         143.2148  142.5643  162.2150 C.ar    1  UNL1       -0.0145
     25 C         144.2157  143.6810  162.1837 C.ar    1  UNL1       -0.0038
     26 C         144.0288  144.8807  163.0647 C.ar    1  UNL1       -0.0003
     27 C         142.8410  144.9636  163.9768 C.ar    1  UNL1       -0.0000
     28 C         141.8401  143.8469  164.0081 C.ar    1  UNL1       -0.0003
     29 C         142.0269  142.6472  163.1272 C.ar    1  UNL1       -0.0038
     30 N         144.0464  134.4533  155.4124 N.3     1  UNL1       -0.2916
     31 H         143.5832  134.2732  154.5217 H       1  UNL1        0.1236
     32 C         143.8282  133.2401  156.2671 C.3     1  UNL1        0.1445
     33 C         140.8852  130.0857  154.9871 C.ar    1  UNL1        0.1387
     34 C         140.6138  131.5303  154.6880 C.ar    1  UNL1        0.0366
     35 C         141.5947  132.5818  155.1146 C.ar    1  UNL1        0.0003
     36 C         142.8472  132.1887  155.8405 C.ar    1  UNL1       -0.0023
     37 C         143.1186  130.7441  156.1396 C.ar    1  UNL1        0.0003
     38 C         142.1376  129.6926  155.7129 C.ar    1  UNL1        0.0366
     39 C         139.5640  127.9054  155.4877 C.3     1  UNL1        0.2525
     40 O         139.9042  129.0343  154.5604 O.3     1  UNL1       -0.4714
     41 C         144.5909  133.0785  157.5485 C.3     1  UNL1        0.3367
     42 F         145.7594  132.1400  157.6126 F       1  UNL1       -0.1965
     43 F         144.1852  133.8552  158.7660 F       1  UNL1       -0.1965
@<TRIPOS>BOND
     1    39    40    1
     2    40    33    1
     3    33    34   ar
     4    34    35   ar
     5    35    36   ar
     6    36    32    1
     7    32    30    1
     8     1    30    1
     9     1     2    1
    10     2     3    1
    11     3     4    1
    12     4     9    1
    13     9    10    2
    14     9    11   am
    15    11    12    1
    16    12    13    1
    17    13    14    1
    18    14    17    1
    19    17    18    2
    20    17    19   am
    21    19    20    1
    22    20    21    1
    23    21    22    1
    24    22    23    1
    25    14    24    1
    26    24    25   ar
    27    25    26   ar
    28    26    27   ar
    29    27    28   ar
    30    28    29   ar
    31    14    15    1
    32    15    16    1
    33     4     5    1
    34     5     6    1
    35     5     7    1
    36     5     8    1
    37    32    41    1
    38    41    42    1
    39    41    43    1
    40    36    37   ar
    41    37    38   ar
    42    38    33   ar
    43     8     1    1
    44    16    11    1
    45    23    19    1
    46    29    24   ar
    47    30    31    1
@<TRIPOS>MOLECULE
*****
 43 47 0 0 0
SMALL
GASTEIGER

@<TRIPOS>ATOM
      1 C         140.5739  144.5020  158.7307 C.3     1  UNL1        0.0543
      2 C         140.3478  145.3487  159.9481 C.3     1  UNL1        0.0162
      3 C         141.2178  145.1716  161.1570 C.3     1  UNL1        0.0104
      4 C         142.3140  144.1478  161.1487 C.3     1  UNL1        0.0768
      5 C         142.5403  143.3010  159.9313 C.3     1  UNL1        0.0095
      6 C         143.1410  142.2683  159.0244 C.3     1  UNL1        0.0005
      7 C         143.6189  142.7652  160.8253 C.3     1  UNL1        0.0005
      8 C         141.6702  143.4782  158.7223 C.3     1  UNL1        0.0162
      9 C         143.1841  143.9706  162.3577 C.2     1  UNL1        0.2251
     10 O         144.5599  144.5678  162.3856 O.2     1  UNL1       -0.2749
     11 N         142.6785  143.1963  163.5386 N.am    1  UNL1       -0.2795
     12 C         141.3028  142.5991  163.5106 C.3     1  UNL1        0.0942
     13 C         140.7971  141.8248  164.6916 C.3     1  UNL1        0.0343
     14 C         141.6671  141.6476  165.9006 C.3     1  UNL1        0.0911
     15 C         143.0429  142.2449  165.9286 C.3     1  UNL1        0.0343
     16 C         143.5485  143.0192  164.7476 C.3     1  UNL1        0.0942
     17 C         140.4463  140.8986  166.3462 C.2     1  UNL1        0.2286
     18 O         139.6100  141.4298  167.4725 O.2     1  UNL1       -0.2746
     19 N         140.0618  139.6184  165.6656 N.am    1  UNL1       -0.2793
     20 C         138.8750  138.7642  165.9997 C.3     1  UNL1        0.0935
     21 C         138.8763  137.5855  165.0720 C.3     1  UNL1        0.0233
     22 C         140.0640  137.7113  164.1645 C.3     1  UNL1        0.0233
     23 C         140.7967  138.9677  164.5313 C.3     1  UNL1        0.0935
     24 C         142.1132  141.2104  167.2643 C.ar    1  UNL1       -0.0145
     25 C         142.4587  142.2343  168.3046 C.ar    1  UNL1       -0.0038
     26 C         142.9047  141.7970  169.6683 C.ar    1  UNL1       -0.0003
     27 C         143.0054  140.3359  169.9918 C.ar    1  UNL1       -0.0000
     28 C         142.6599  139.3119  168.9516 C.ar    1  UNL1       -0.0003
     29 C         142.2138  139.7491  167.5878 C.ar    1  UNL1       -0.0038
     30 N         139.7039  144.6792  157.5217 N.3     1  UNL1       -0.2916
     31 H         139.4909  143.7447  157.1728 H       1  UNL1        0.1236
     32 C         140.1993  145.4760  156.3514 C.3     1  UNL1        0.1445
     33 C         138.6581  149.6459  155.6541 C.ar    1  UNL1        0.1387
     34 C         138.4459  148.9801  156.9814 C.ar    1  UNL1        0.0366
     35 C         138.9597  147.5901  157.2138 C.ar    1  UNL1        0.0003
     36 C         139.6856  146.8659  156.1190 C.ar    1  UNL1       -0.0023
     37 C         139.8977  147.5318  154.7917 C.ar    1  UNL1        0.0003
     38 C         139.3839  148.9217  154.5593 C.ar    1  UNL1        0.0366
     39 C         138.7893  151.9107  154.3880 C.3     1  UNL1        0.2525
     40 O         138.1443  151.0359  155.4217 O.3     1  UNL1       -0.4714
     41 C         141.2085  144.8828  155.4136 C.3     1  UNL1        0.3367
     42 F         140.7808  143.8661  154.3969 F       1  UNL1       -0.1965
     43 F         142.6454  145.3062  155.4923 F       1  UNL1       -0.1965
@<TRIPOS>BOND
     1    39    40    1
     2    40    33    1
     3    33    34   ar
     4    34    35   ar
     5    35    36   ar
     6    36    32    1
     7    32    30    1
     8     1    30    1
     9     1     2    1
    10     2     3    1
    11     3     4    1
    12     4     9    1
    13     9    10    2
    14     9    11   am
    15    11    12    1
    16    12    13    1
    17    13    14    1
    18    14    17    1
    19    17    18    2
    20    17    19   am
    21    19    20    1
    22    20    21    1
    23    21    22    1
    24    22    23    1
    25    14    24    1
    26    24    25   ar
    27    25    26   ar
    28    26    27   ar
    29    27    28   ar
    30    28    29   ar
    31    14    15    1
    32    15    16    1
    33     4     5    1
    34     5     6    1
    35     5     7    1
    36     5     8    1
    37    32    41    1
    38    41    42    1
    39    41    43    1
    40    36    37   ar
    41    37    38   ar
    42    38    33   ar
    43     8     1    1
    44    16    11    1
    45    23    19    1
    46    29    24   ar
    47    30    31    1
@<TRIPOS>MOLECULE
*****
 43 47 0 0 0
SMALL
GASTEIGER

@<TRIPOS>ATOM
      1 C         143.7830  135.9245  155.8737 C.3     1  UNL1        0.0543
      2 C         142.6556  135.9597  156.8624 C.3     1  UNL1        0.0162
      3 C         142.1271  137.2758  157.3508 C.3     1  UNL1        0.0104
      4 C         142.7261  138.5567  156.8504 C.3     1  UNL1        0.0768
      5 C         143.8535  138.5216  155.8616 C.3     1  UNL1        0.0095
      6 C         144.9269  139.0013  154.9301 C.3     1  UNL1        0.0005
      7 C         143.6978  140.0043  156.0264 C.3     1  UNL1        0.0005
      8 C         144.3820  137.2055  155.3732 C.3     1  UNL1        0.0162
      9 C         142.1976  139.8729  157.3387 C.2     1  UNL1        0.2251
     10 O         141.2505  140.6639  156.4858 O.2     1  UNL1       -0.2749
     11 N         142.6162  140.3981  158.6800 N.am    1  UNL1       -0.2795
     12 C         143.5632  139.6071  159.5328 C.3     1  UNL1        0.0942
     13 C         143.9819  140.1323  160.8741 C.3     1  UNL1        0.0343
     14 C         143.4534  141.4484  161.3625 C.3     1  UNL1        0.0911
     15 C         142.5063  142.2394  160.5095 C.3     1  UNL1        0.0343
     16 C         142.0877  141.7142  159.1683 C.3     1  UNL1        0.0942
     17 C         144.3216  141.0687  162.5252 C.2     1  UNL1        0.2286
     18 O         145.6922  141.6626  162.6632 O.2     1  UNL1       -0.2746
     19 N         143.8194  140.0953  163.5499 N.am    1  UNL1       -0.2793
     20 C         144.5699  139.6231  164.7598 C.3     1  UNL1        0.0935
     21 C         143.6929  138.6590  165.5024 C.3     1  UNL1        0.0233
     22 C         142.4003  138.5354  164.7513 C.3     1  UNL1        0.0233
     23 C         142.4785  139.4230  163.5447 C.3     1  UNL1        0.0935
     24 C         143.2264  142.6327  162.2546 C.ar    1  UNL1       -0.0145
     25 C         144.2064  143.7683  162.2574 C.ar    1  UNL1       -0.0038
     26 C         143.9794  144.9526  163.1496 C.ar    1  UNL1       -0.0003
     27 C         142.7726  145.0013  164.0390 C.ar    1  UNL1       -0.0000
     28 C         141.7927  143.8657  164.0362 C.ar    1  UNL1       -0.0003
     29 C         142.0195  142.6813  163.1441 C.ar    1  UNL1       -0.0038
     30 N         144.3115  134.6083  155.3853 N.3     1  UNL1       -0.2916
     31 H         144.6070  134.7498  154.4194 H       1  UNL1        0.1236
     32 C         143.4288  133.3956  155.3948 C.3     1  UNL1        0.1445
     33 C         144.4096  129.9197  158.0792 C.ar    1  UNL1        0.1387
     34 C         143.2739  129.8176  157.1047 C.ar    1  UNL1        0.0366
     35 C         142.9470  130.9762  156.2098 C.ar    1  UNL1        0.0003
     36 C         143.7557  132.2370  156.2896 C.ar    1  UNL1       -0.0023
     37 C         144.8914  132.3391  157.2642 C.ar    1  UNL1        0.0003
     38 C         145.2183  131.1805  158.1590 C.ar    1  UNL1        0.0366
     39 C         143.7611  128.3292  160.0285 C.3     1  UNL1        0.2525
     40 O         144.7365  128.7611  158.9740 O.3     1  UNL1       -0.4714
     41 C         142.2192  133.3415  154.5095 C.3     1  UNL1        0.3367
     42 F         142.3735  133.0529  153.0456 F       1  UNL1       -0.1965
     43 F         140.8552  133.5761  155.0880 F       1  UNL1       -0.1965
@<TRIPOS>BOND
     1    39    40    1
     2    40    33    1
     3    33    34   ar
     4    34    35   ar
     5    35    36   ar
     6    36    32    1
     7    32    30    1
     8     1    30    1
     9     1     2    1
    10     2     3    1
    11     3     4    1
    12     4     9    1
    13     9    10    2
    14     9    11   am
    15    11    12    1
    16    12    13    1
    17    13    14    1
    18    14    17    1
    19    17    18    2
    20    17    19   am
    21    19    20    1
    22    20    21    1
    23    21    22    1
    24    22    23    1
    25    14    24    1
    26    24    25   ar
    27    25    26   ar
    28    26    27   ar
    29    27    28   ar
    30    28    29   ar
    31    14    15    1
    32    15    16    1
    33     4     5    1
    34     5     6    1
    35     5     7    1
    36     5     8    1
    37    32    41    1
    38    41    42    1
    39    41    43    1
    40    36    37   ar
    41    37    38   ar
    42    38    33   ar
    43     8     1    1
    44    16    11    1
    45    23    19    1
    46    29    24   ar
    47    30    31    1
@<TRIPOS>MOLECULE
*****
 43 47 0 0 0
SMALL
GASTEIGER

@<TRIPOS>ATOM
      1 C         138.9690  141.6231  165.1287 C.3     1  UNL1        0.0543
      2 C         137.8748  142.1303  164.2370 C.3     1  UNL1        0.0162
      3 C         138.1706  143.1851  163.2123 C.3     1  UNL1        0.0104
      4 C         139.5608  143.7326  163.0794 C.3     1  UNL1        0.0768
      5 C         140.6551  143.2253  163.9711 C.3     1  UNL1        0.0095
      6 C         142.0164  143.0651  164.5805 C.3     1  UNL1        0.0005
      7 C         141.4237  144.2244  163.1581 C.3     1  UNL1        0.0005
      8 C         140.3593  142.1706  164.9958 C.3     1  UNL1        0.0162
      9 C         139.8566  144.7873  162.0547 C.2     1  UNL1        0.2251
     10 O         139.9870  146.2224  162.4716 O.2     1  UNL1       -0.2749
     11 N         140.0221  144.4071  160.6132 N.am    1  UNL1       -0.2795
     12 C         139.8917  142.9721  160.1963 C.3     1  UNL1        0.0942
     13 C         140.0572  142.5918  158.7548 C.3     1  UNL1        0.0343
     14 C         140.3531  143.6466  157.7301 C.3     1  UNL1        0.0911
     15 C         140.4834  145.0816  158.1470 C.3     1  UNL1        0.0343
     16 C         140.3180  145.4619  159.5885 C.3     1  UNL1        0.0942
     17 C         140.3216  142.4313  156.8514 C.2     1  UNL1        0.2286
     18 O         141.6021  141.8499  156.3294 O.2     1  UNL1       -0.2746
     19 N         139.0098  141.7974  156.4947 N.am    1  UNL1       -0.2793
     20 C         138.8221  140.5856  155.6308 C.3     1  UNL1        0.0935
     21 C         137.3516  140.3032  155.5414 C.3     1  UNL1        0.0233
     22 C         136.6305  141.3406  156.3502 C.3     1  UNL1        0.0233
     23 C         137.6553  142.2640  156.9393 C.3     1  UNL1        0.0935
     24 C         140.6380  144.2793  156.4003 C.ar    1  UNL1       -0.0145
     25 C         142.0546  144.5414  155.9825 C.ar    1  UNL1       -0.0038
     26 C         142.3395  145.1741  154.6527 C.ar    1  UNL1       -0.0003
     27 C         141.2080  145.5447  153.7406 C.ar    1  UNL1       -0.0000
     28 C         139.7914  145.2826  154.1583 C.ar    1  UNL1       -0.0003
     29 C         139.5063  144.6499  155.4881 C.ar    1  UNL1       -0.0038
     30 N         138.6732  140.5683  166.1534 N.3     1  UNL1       -0.2916
     31 H         139.3438  140.6975  166.9110 H       1  UNL1        0.1236
     32 C         138.7234  139.1182  165.7731 C.3     1  UNL1        0.1445
     33 C         141.2716  137.7868  162.3114 C.ar    1  UNL1        0.1387
     34 C         139.7853  137.9039  162.1472 C.ar    1  UNL1        0.0366
     35 C         138.9359  138.3477  163.3011 C.ar    1  UNL1        0.0003
     36 C         139.5728  138.6744  164.6192 C.ar    1  UNL1       -0.0023
     37 C         141.0591  138.5573  164.7834 C.ar    1  UNL1        0.0003
     38 C         141.9085  138.1135  163.6295 C.ar    1  UNL1        0.0366
     39 C         143.5614  137.7550  161.0843 C.3     1  UNL1        0.2525
     40 O         142.1210  137.3430  161.1574 O.3     1  UNL1       -0.4714
     41 C         137.9242  138.1119  166.5468 C.3     1  UNL1        0.3367
     42 F         137.1090  138.5492  167.7276 F       1  UNL1       -0.1965
     43 F         137.9401  136.6683  166.1397 F       1  UNL1       -0.1965
@<TRIPOS>BOND
     1    39    40    1
     2    40    33    1
     3    33    34   ar
     4    34    35   ar
     5    35    36   ar
     6    36    32    1
     7    32    30    1
     8     1    30    1
     9     1     2    1
    10     2     3    1
    11     3     4    1
    12     4     9    1
    13     9    10    2
    14     9    11   am
    15    11    12    1
    16    12    13    1
    17    13    14    1
    18    14    17    1
    19    17    18    2
    20    17    19   am
    21    19    20    1
    22    20    21    1
    23    21    22    1
    24    22    23    1
    25    14    24    1
    26    24    25   ar
    27    25    26   ar
    28    26    27   ar
    29    27    28   ar
    30    28    29   ar
    31    14    15    1
    32    15    16    1
    33     4     5    1
    34     5     6    1
    35     5     7    1
    36     5     8    1
    37    32    41    1
    38    41    42    1
    39    41    43    1
    40    36    37   ar
    41    37    38   ar
    42    38    33   ar
    43     8     1    1
    44    16    11    1
    45    23    19    1
    46    29    24   ar
    47    30    31    1
@<TRIPOS>MOLECULE
*****
 43 47 0 0 0
SMALL
GASTEIGER

@<TRIPOS>ATOM
      1 C         138.4839  141.0583  164.2987 C.3     1  UNL1        0.0543
      2 C         139.6148  140.6576  163.3985 C.3     1  UNL1        0.0162
      3 C         140.2991  141.6878  162.5497 C.3     1  UNL1        0.0104
      4 C         139.8524  143.1188  162.6010 C.3     1  UNL1        0.0768
      5 C         138.7214  143.5196  163.5013 C.3     1  UNL1        0.0095
      6 C         137.7056  144.3822  164.1897 C.3     1  UNL1        0.0005
      7 C         139.0529  144.8494  162.8915 C.3     1  UNL1        0.0005
      8 C         138.0372  142.4894  164.3501 C.3     1  UNL1        0.0162
      9 C         140.5366  144.1490  161.7522 C.2     1  UNL1        0.2251
     10 O         141.5059  145.1099  162.3745 O.2     1  UNL1       -0.2749
     11 N         140.2517  144.2182  160.2812 N.am    1  UNL1       -0.2795
     12 C         139.2824  143.2573  159.6590 C.3     1  UNL1        0.0942
     13 C         138.9974  143.3266  158.1879 C.3     1  UNL1        0.0343
     14 C         139.6816  144.3568  157.3391 C.3     1  UNL1        0.0911
     15 C         140.6509  145.3177  157.9614 C.3     1  UNL1        0.0343
     16 C         140.9359  145.2484  159.4324 C.3     1  UNL1        0.0942
     17 C         138.8497  143.6709  156.2963 C.2     1  UNL1        0.2286
     18 O         137.6585  144.3683  155.7091 O.2     1  UNL1       -0.2746
     19 N         139.2088  142.2876  155.8408 N.am    1  UNL1       -0.2793
     20 C         138.4750  141.4799  154.8117 C.3     1  UNL1        0.0935
     21 C         139.1774  140.1622  154.6692 C.3     1  UNL1        0.0233
     22 C         140.3455  140.1556  155.6103 C.3     1  UNL1        0.0233
     23 C         140.3649  141.4691  156.3344 C.3     1  UNL1        0.0935
     24 C         140.0769  145.1487  156.1282 C.ar    1  UNL1       -0.0145
     25 C         139.4802  146.5043  155.8909 C.ar    1  UNL1       -0.0038
     26 C         139.8755  147.2963  154.6799 C.ar    1  UNL1       -0.0003
     27 C         140.8675  146.7328  153.7062 C.ar    1  UNL1       -0.0000
     28 C         141.4643  145.3772  153.9434 C.ar    1  UNL1       -0.0003
     29 C         141.0690  144.5852  155.1544 C.ar    1  UNL1       -0.0038
     30 N         137.7997  140.0281  165.1475 N.3     1  UNL1       -0.2916
     31 H         137.1861  140.5335  165.7866 H       1  UNL1        0.1236
     32 C         138.6129  139.0847  165.9833 C.3     1  UNL1        0.1445
     33 C         141.2165  140.6798  169.2888 C.ar    1  UNL1        0.1387
     34 C         139.7621  140.4140  169.5417 C.ar    1  UNL1        0.0366
     35 C         138.8942  139.8823  168.4398 C.ar    1  UNL1        0.0003
     36 C         139.4808  139.6164  167.0851 C.ar    1  UNL1       -0.0023
     37 C         140.9352  139.8823  166.8323 C.ar    1  UNL1        0.0003
     38 C         141.8030  140.4140  167.9341 C.ar    1  UNL1        0.0366
     39 C         142.5745  142.6284  170.3419 C.3     1  UNL1        0.2525
     40 O         142.0844  141.2116  170.3907 O.3     1  UNL1       -0.4714
     41 C         138.5582  137.6095  165.7173 C.3     1  UNL1        0.3367
     42 F         137.7250  136.7201  166.5918 F       1  UNL1       -0.1965
     43 F         139.3366  137.0237  164.5766 F       1  UNL1       -0.1965
@<TRIPOS>BOND
     1    39    40    1
     2    40    33    1
     3    33    34   ar
     4    34    35   ar
     5    35    36   ar
     6    36    32    1
     7    32    30    1
     8     1    30    1
     9     1     2    1
    10     2     3    1
    11     3     4    1
    12     4     9    1
    13     9    10    2
    14     9    11   am
    15    11    12    1
    16    12    13    1
    17    13    14    1
    18    14    17    1
    19    17    18    2
    20    17    19   am
    21    19    20    1
    22    20    21    1
    23    21    22    1
    24    22    23    1
    25    14    24    1
    26    24    25   ar
    27    25    26   ar
    28    26    27   ar
    29    27    28   ar
    30    28    29   ar
    31    14    15    1
    32    15    16    1
    33     4     5    1
    34     5     6    1
    35     5     7    1
    36     5     8    1
    37    32    41    1
    38    41    42    1
    39    41    43    1
    40    36    37   ar
    41    37    38   ar
    42    38    33   ar
    43     8     1    1
    44    16    11    1
    45    23    19    1
    46    29    24   ar
    47    30    31    1
@<TRIPOS>MOLECULE
*****
 43 47 0 0 0
SMALL
GASTEIGER

@<TRIPOS>ATOM
      1 C         139.0427  141.6809  164.9560 C.3     1  UNL1        0.0543
      2 C         137.9451  142.0411  163.9992 C.3     1  UNL1        0.0162
      3 C         138.1772  143.0895  162.9518 C.3     1  UNL1        0.0104
      4 C         139.5069  143.7777  162.8612 C.3     1  UNL1        0.0768
      5 C         140.6046  143.4176  163.8181 C.3     1  UNL1        0.0095
      6 C         141.9444  143.4220  164.4925 C.3     1  UNL1        0.0005
      7 C         141.3019  144.4675  163.0050 C.3     1  UNL1        0.0005
      8 C         140.3725  142.3691  164.8655 C.3     1  UNL1        0.0162
      9 C         139.7390  144.8261  161.8139 C.2     1  UNL1        0.2251
     10 O         139.6387  146.2793  162.1721 O.2     1  UNL1       -0.2749
     11 N         140.0713  144.4214  160.4083 N.am    1  UNL1       -0.2795
     12 C         140.1716  142.9683  160.0501 C.3     1  UNL1        0.0942
     13 C         140.5040  142.5635  158.6444 C.3     1  UNL1        0.0343
     14 C         140.7361  143.6119  157.5971 C.3     1  UNL1        0.0911
     15 C         140.6358  145.0651  157.9553 C.3     1  UNL1        0.0343
     16 C         140.3034  145.4698  159.3609 C.3     1  UNL1        0.0942
     17 C         140.9418  142.3735  156.7761 C.2     1  UNL1        0.2286
     18 O         139.8920  141.9405  155.7960 O.2     1  UNL1       -0.2746
     19 N         142.1971  141.5681  156.9352 N.am    1  UNL1       -0.2793
     20 C         142.5408  140.3140  156.1874 C.3     1  UNL1        0.0935
     21 C         143.8854  139.8462  156.6600 C.3     1  UNL1        0.0233
     22 C         144.3727  140.8112  157.6999 C.3     1  UNL1        0.0233
     23 C         143.3293  141.8754  157.8699 C.3     1  UNL1        0.0935
     24 C         141.0396  144.2302  156.2646 C.ar    1  UNL1       -0.0145
     25 C         139.9210  144.7127  155.3894 C.ar    1  UNL1       -0.0038
     26 C         140.2246  145.3310  154.0569 C.ar    1  UNL1       -0.0003
     27 C         141.6466  145.4669  153.5996 C.ar    1  UNL1       -0.0000
     28 C         142.7652  144.9843  154.4748 C.ar    1  UNL1       -0.0003
     29 C         142.4618  144.3660  155.8073 C.ar    1  UNL1       -0.0038
     30 N         138.8106  140.6325  166.0033 N.3     1  UNL1       -0.2916
     31 H         139.5296  140.7630  166.7150 H       1  UNL1        0.1236
     32 C         138.8310  139.1803  165.6284 C.3     1  UNL1        0.1445
     33 C         141.3122  137.7918  162.1404 C.ar    1  UNL1        0.1387
     34 C         139.8271  137.9414  161.9920 C.ar    1  UNL1        0.0366
     35 C         139.0001  138.4043  163.1547 C.ar    1  UNL1        0.0003
     36 C         139.6581  138.7175  164.4657 C.ar    1  UNL1       -0.0023
     37 C         141.1432  138.5678  164.6141 C.ar    1  UNL1        0.0003
     38 C         141.9703  138.1050  163.4514 C.ar    1  UNL1        0.0366
     39 C         142.7714  138.3330  160.0601 C.3     1  UNL1        0.2525
     40 O         142.1393  137.3290  160.9778 O.3     1  UNL1       -0.4714
     41 C         138.0244  138.1909  166.4160 C.3     1  UNL1        0.3367
     42 F         137.1912  138.6549  167.5738 F       1  UNL1       -0.1965
     43 F         138.0511  136.7375  166.0460 F       1  UNL1       -0.1965
@<TRIPOS>BOND
     1    39    40    1
     2    40    33    1
     3    33    34   ar
     4    34    35   ar
     5    35    36   ar
     6    36    32    1
     7    32    30    1
     8     1    30    1
     9     1     2    1
    10     2     3    1
    11     3     4    1
    12     4     9    1
    13     9    10    2
    14     9    11   am
    15    11    12    1
    16    12    13    1
    17    13    14    1
    18    14    17    1
    19    17    18    2
    20    17    19   am
    21    19    20    1
    22    20    21    1
    23    21    22    1
    24    22    23    1
    25    14    24    1
    26    24    25   ar
    27    25    26   ar
    28    26    27   ar
    29    27    28   ar
    30    28    29   ar
    31    14    15    1
    32    15    16    1
    33     4     5    1
    34     5     6    1
    35     5     7    1
    36     5     8    1
    37    32    41    1
    38    41    42    1
    39    41    43    1
    40    36    37   ar
    41    37    38   ar
    42    38    33   ar
    43     8     1    1
    44    16    11    1
    45    23    19    1
    46    29    24   ar
    47    30    31    1
@<TRIPOS>MOLECULE
*****
 43 47 0 0 0
SMALL
GASTEIGER

@<TRIPOS>ATOM
      1 C         140.4791  144.5136  158.8012 C.3     1  UNL1        0.0543
      2 C         141.6471  143.5727  158.8166 C.3     1  UNL1        0.0162
      3 C         142.4887  143.4420  160.0514 C.3     1  UNL1        0.0104
      4 C         142.1621  144.2521  161.2708 C.3     1  UNL1        0.0768
      5 C         140.9940  145.1931  161.2554 C.3     1  UNL1        0.0095
      6 C         139.9980  146.2114  161.7255 C.3     1  UNL1        0.0005
      7 C         141.4896  145.4160  162.6535 C.3     1  UNL1        0.0005
      8 C         140.1524  145.3238  160.0206 C.3     1  UNL1        0.0162
      9 C         143.0036  144.1214  162.5056 C.2     1  UNL1        0.2251
     10 O         144.3211  144.8331  162.5941 O.2     1  UNL1       -0.2749
     11 N         142.5277  143.2790  163.6518 N.am    1  UNL1       -0.2795
     12 C         141.2103  142.5673  163.5632 C.3     1  UNL1        0.0942
     13 C         140.7344  141.7248  164.7094 C.3     1  UNL1        0.0343
     14 C         141.5759  141.5941  165.9442 C.3     1  UNL1        0.0911
     15 C         142.8934  142.3058  166.0328 C.3     1  UNL1        0.0343
     16 C         143.3693  143.1482  164.8866 C.3     1  UNL1        0.0942
     17 C         140.4101  140.7332  166.3311 C.2     1  UNL1        0.2286
     18 O         139.5275  141.1358  167.4752 O.2     1  UNL1       -0.2746
     19 N         140.1269  139.4697  165.5739 N.am    1  UNL1       -0.2793
     20 C         139.0036  138.5129  165.8440 C.3     1  UNL1        0.0935
     21 C         139.0997  137.3930  164.8507 C.3     1  UNL1        0.0233
     22 C         140.2824  137.6576  163.9668 C.3     1  UNL1        0.0233
     23 C         140.9172  138.9411  164.4137 C.3     1  UNL1        0.0935
     24 C         142.0125  141.1644  167.3133 C.ar    1  UNL1       -0.0145
     25 C         142.2273  139.7098  167.6100 C.ar    1  UNL1       -0.0038
     26 C         142.6640  139.2801  168.9792 C.ar    1  UNL1       -0.0003
     27 C         142.8859  140.3048  170.0517 C.ar    1  UNL1       -0.0000
     28 C         142.6711  141.7594  169.7551 C.ar    1  UNL1       -0.0003
     29 C         142.2344  142.1893  168.3860 C.ar    1  UNL1       -0.0038
     30 N         139.6375  144.6444  157.5663 N.3     1  UNL1       -0.2916
     31 H         139.4639  143.6983  157.2269 H       1  UNL1        0.1236
     32 C         140.1396  145.4386  156.3972 C.3     1  UNL1        0.1445
     33 C         138.6541  149.6322  155.7213 C.ar    1  UNL1        0.1387
     34 C         139.3763  148.9066  154.6251 C.ar    1  UNL1        0.0366
     35 C         139.8715  147.5087  154.8504 C.ar    1  UNL1        0.0003
     36 C         139.6445  146.8365  156.1719 C.ar    1  UNL1       -0.0023
     37 C         138.9222  147.5621  157.2681 C.ar    1  UNL1        0.0003
     38 C         138.4270  148.9600  157.0428 C.ar    1  UNL1        0.0366
     39 C         138.7463  151.8659  154.3977 C.3     1  UNL1        0.2525
     40 O         138.1589  151.0301  155.4960 O.3     1  UNL1       -0.4714
     41 C         141.1370  144.8350  155.4533 C.3     1  UNL1        0.3367
     42 F         140.6761  144.2356  154.1578 F       1  UNL1       -0.1965
     43 F         142.5952  144.8307  155.8049 F       1  UNL1       -0.1965
@<TRIPOS>BOND
     1    39    40    1
     2    40    33    1
     3    33    34   ar
     4    34    35   ar
     5    35    36   ar
     6    36    32    1
     7    32    30    1
     8     1    30    1
     9     1     2    1
    10     2     3    1
    11     3     4    1
    12     4     9    1
    13     9    10    2
    14     9    11   am
    15    11    12    1
    16    12    13    1
    17    13    14    1
    18    14    17    1
    19    17    18    2
    20    17    19   am
    21    19    20    1
    22    20    21    1
    23    21    22    1
    24    22    23    1
    25    14    24    1
    26    24    25   ar
    27    25    26   ar
    28    26    27   ar
    29    27    28   ar
    30    28    29   ar
    31    14    15    1
    32    15    16    1
    33     4     5    1
    34     5     6    1
    35     5     7    1
    36     5     8    1
    37    32    41    1
    38    41    42    1
    39    41    43    1
    40    36    37   ar
    41    37    38   ar
    42    38    33   ar
    43     8     1    1
    44    16    11    1
    45    23    19    1
    46    29    24   ar
    47    30    31    1
