@<TRIPOS>MOLECULE
*****
 30 34 0 0 0
SMALL
GASTEIGER

@<TRIPOS>ATOM
      1 N         142.7422  143.4406  161.8570 N.pl3   1  UNL1       -0.2781
      2 C         143.9363  143.6322  162.7444 C.3     1  UNL1        0.0954
      3 C         143.5363  143.2707  164.1441 C.3     1  UNL1        0.0430
      4 C         144.0271  143.1657  165.5577 C.3     1  UNL1        0.0955
      5 N         142.8892  142.6857  166.4091 N.am    1  UNL1       -0.2759
      6 C         142.9370  142.4405  167.8881 C.2     1  UNL1        0.2506
      7 O         144.2091  142.6773  168.6469 O.2     1  UNL1       -0.2699
      8 C         141.6951  142.4941  165.5217 C.3     1  UNL1        0.0955
      9 C         142.0951  142.8556  164.1219 C.3     1  UNL1        0.0430
     10 C         141.6042  142.9606  162.7084 C.3     1  UNL1        0.0954
     11 C         144.4273  142.3662  157.0606 C.3     1  UNL1        0.0522
     12 C         143.5369  143.1486  157.9798 C.ar    1  UNL1        0.0634
     13 C         142.5987  144.1764  157.4199 C.ar    1  UNL1        0.0296
     14 C         141.7083  144.9588  158.3390 C.ar    1  UNL1        0.0634
     15 C         140.7700  145.9865  157.7792 C.3     1  UNL1        0.0522
     16 N         141.7561  144.7135  159.8181 N.ar    1  UNL1       -0.2180
     17 C         142.6944  143.6858  160.3780 C.ar    1  UNL1        0.2195
     18 N         143.5848  142.9033  159.4588 N.ar    1  UNL1       -0.2180
     19 C         141.7128  141.9584  168.6083 C.ar    1  UNL1        0.0752
     20 C         140.9660  142.8852  169.5212 C.ar    1  UNL1        0.0357
     21 C         139.7417  142.4032  170.2415 C.ar    1  UNL1        0.1404
     22 F         138.9950  143.3301  171.1544 F       1  UNL1       -0.2042
     23 C         139.2642  140.9944  170.0489 C.ar    1  UNL1        0.0312
     24 C         140.0109  140.0675  169.1360 C.ar    1  UNL1        0.0234
     25 C         141.2352  140.5495  168.4158 C.ar    1  UNL1        0.1074
     26 N         141.9820  139.6227  167.5029 N.ar    1  UNL1       -0.1477
     27 N         141.5930  139.2651  166.0990 N.ar    1  UNL1       -0.1447
     28 C         142.6194  138.3122  165.5621 C.ar    1  UNL1        0.1446
     29 C         143.6428  138.0808  166.6341 C.ar    1  UNL1        0.1446
     30 N         143.2488  138.8908  167.8335 N.ar    1  UNL1       -0.1447
@<TRIPOS>BOND
     1    11    12    1
     2    12    13   ar
     3    13    14   ar
     4    14    15    1
     5    14    16   ar
     6    16    17   ar
     7    17     1    1
     8     1     2    1
     9     3     2    1
    10     3     4    1
    11     4     5    1
    12     5     6   am
    13     6     7    2
    14     6    19    1
    15    19    20   ar
    16    20    21   ar
    17    21    22    1
    18    21    23   ar
    19    23    24   ar
    20    24    25   ar
    21    25    26    1
    22    26    27   ar
    23    27    28   ar
    24    28    29   ar
    25    29    30   ar
    26     5     8    1
    27     9     8    1
    28     9    10    1
    29    17    18   ar
    30    18    12   ar
    31    10     1    1
    32     9     3    1
    33    25    19   ar
    34    30    26   ar
@<TRIPOS>MOLECULE
*****
 30 34 0 0 0
SMALL
GASTEIGER

@<TRIPOS>ATOM
      1 N         143.2364  139.8823  161.8965 N.pl3   1  UNL1       -0.2781
      2 C         143.5352  138.7256  162.8037 C.3     1  UNL1        0.0954
      3 C         143.2523  139.1564  164.2124 C.3     1  UNL1        0.0430
      4 C         143.2621  138.7077  165.6436 C.3     1  UNL1        0.0955
      5 N         142.7945  139.8532  166.4918 N.am    1  UNL1       -0.2759
      6 C         142.6510  139.8438  167.9848 C.2     1  UNL1        0.2506
      7 O         142.9893  138.6068  168.7630 O.2     1  UNL1       -0.2699
      8 C         142.4958  141.0099  165.5845 C.3     1  UNL1        0.0955
      9 C         142.7787  140.5792  164.1758 C.3     1  UNL1        0.0430
     10 C         142.7689  141.0278  162.7446 C.3     1  UNL1        0.0954
     11 C         144.9207  142.1822  157.5522 C.3     1  UNL1        0.0522
     12 C         144.2221  141.0417  158.2312 C.ar    1  UNL1        0.0634
     13 C         143.6671  139.9106  157.4172 C.ar    1  UNL1        0.0296
     14 C         142.9684  138.7701  158.0963 C.ar    1  UNL1        0.0634
     15 C         142.4133  137.6391  157.2823 C.3     1  UNL1        0.0522
     16 N         142.8249  138.7607  159.5894 N.ar    1  UNL1       -0.2180
     17 C         143.3800  139.8918  160.4034 C.ar    1  UNL1        0.2195
     18 N         144.0786  141.0323  159.7244 N.ar    1  UNL1       -0.2180
     19 C         142.1691  141.0712  168.6997 C.ar    1  UNL1        0.0752
     20 C         143.1268  141.8894  169.5141 C.ar    1  UNL1        0.0357
     21 C         142.6449  143.1169  170.2291 C.ar    1  UNL1        0.1404
     22 F         143.6027  143.9350  171.0435 F       1  UNL1       -0.2042
     23 C         141.2053  143.5261  170.1296 C.ar    1  UNL1        0.0312
     24 C         140.2474  142.7079  169.3152 C.ar    1  UNL1        0.0234
     25 C         140.7294  141.4805  168.6003 C.ar    1  UNL1        0.1074
     26 N         139.7716  140.6623  167.7859 N.ar    1  UNL1       -0.1477
     27 N         138.9966  139.4724  168.2689 N.ar    1  UNL1       -0.1447
     28 C         138.1667  138.9651  167.1270 C.ar    1  UNL1        0.1446
     29 C         138.4289  139.8415  165.9382 C.ar    1  UNL1        0.1446
     30 N         139.4208  140.8904  166.3454 N.ar    1  UNL1       -0.1447
@<TRIPOS>BOND
     1    11    12    1
     2    12    13   ar
     3    13    14   ar
     4    14    15    1
     5    14    16   ar
     6    16    17   ar
     7    17     1    1
     8     1     2    1
     9     3     2    1
    10     3     4    1
    11     4     5    1
    12     5     6   am
    13     6     7    2
    14     6    19    1
    15    19    20   ar
    16    20    21   ar
    17    21    22    1
    18    21    23   ar
    19    23    24   ar
    20    24    25   ar
    21    25    26    1
    22    26    27   ar
    23    27    28   ar
    24    28    29   ar
    25    29    30   ar
    26     5     8    1
    27     9     8    1
    28     9    10    1
    29    17    18   ar
    30    18    12   ar
    31    10     1    1
    32     9     3    1
    33    25    19   ar
    34    30    26   ar
@<TRIPOS>MOLECULE
*****
 30 34 0 0 0
SMALL
GASTEIGER

@<TRIPOS>ATOM
      1 N         141.8082  138.4720  158.6740 N.pl3   1  UNL1       -0.2781
      2 C         140.6423  139.3975  158.4898 C.3     1  UNL1        0.0954
      3 C         140.0927  139.7263  159.8462 C.3     1  UNL1        0.0430
      4 C         139.0325  140.5015  160.5708 C.3     1  UNL1        0.0955
      5 N         139.2035  140.2582  162.0410 N.am    1  UNL1       -0.2759
      6 C         138.3572  140.8386  163.1350 C.2     1  UNL1        0.2506
      7 O         137.2184  141.7544  162.7966 O.2     1  UNL1       -0.2699
      8 C         140.3695  139.3327  162.2252 C.3     1  UNL1        0.0955
      9 C         140.9191  139.0039  160.8687 C.3     1  UNL1        0.0430
     10 C         141.9793  138.2287  160.1442 C.3     1  UNL1        0.0954
     11 C         143.6631  134.3366  156.1328 C.3     1  UNL1        0.0522
     12 C         143.5820  135.8240  156.3093 C.ar    1  UNL1        0.0634
     13 C         144.3474  136.7309  155.3919 C.ar    1  UNL1        0.0296
     14 C         144.2663  138.2183  155.5685 C.ar    1  UNL1        0.0634
     15 C         145.0316  139.1253  154.6511 C.3     1  UNL1        0.0522
     16 N         143.4199  138.7986  156.6625 N.ar    1  UNL1       -0.2180
     17 C         142.6546  137.8916  157.5800 C.ar    1  UNL1        0.2195
     18 N         142.7356  136.4043  157.4034 N.ar    1  UNL1       -0.2180
     19 C         138.6496  140.5032  164.5675 C.ar    1  UNL1        0.0752
     20 C         137.9812  139.3261  165.2137 C.ar    1  UNL1        0.0357
     21 C         138.2736  138.9907  166.6462 C.ar    1  UNL1        0.1404
     22 F         137.6051  137.8135  167.2923 F       1  UNL1       -0.2042
     23 C         139.2344  139.8324  167.4325 C.ar    1  UNL1        0.0312
     24 C         139.9029  141.0096  166.7863 C.ar    1  UNL1        0.0234
     25 C         139.6105  141.3449  165.3539 C.ar    1  UNL1        0.1074
     26 N         140.2789  142.5221  164.7077 N.ar    1  UNL1       -0.1477
     27 N         139.8059  143.9445  164.7630 N.ar    1  UNL1       -0.1447
     28 C         140.7723  144.7850  163.9822 C.ar    1  UNL1        0.1446
     29 C         141.8426  143.8820  163.4444 C.ar    1  UNL1        0.1446
     30 N         141.5376  142.4835  163.8927 N.ar    1  UNL1       -0.1447
@<TRIPOS>BOND
     1    11    12    1
     2    12    13   ar
     3    13    14   ar
     4    14    15    1
     5    14    16   ar
     6    16    17   ar
     7    17     1    1
     8     1     2    1
     9     3     2    1
    10     3     4    1
    11     4     5    1
    12     5     6   am
    13     6     7    2
    14     6    19    1
    15    19    20   ar
    16    20    21   ar
    17    21    22    1
    18    21    23   ar
    19    23    24   ar
    20    24    25   ar
    21    25    26    1
    22    26    27   ar
    23    27    28   ar
    24    28    29   ar
    25    29    30   ar
    26     5     8    1
    27     9     8    1
    28     9    10    1
    29    17    18   ar
    30    18    12   ar
    31    10     1    1
    32     9     3    1
    33    25    19   ar
    34    30    26   ar
@<TRIPOS>MOLECULE
*****
 30 34 0 0 0
SMALL
GASTEIGER

@<TRIPOS>ATOM
      1 N         137.9667  140.6960  158.5013 N.pl3   1  UNL1       -0.2781
      2 C         138.8548  139.4872  158.5174 C.3     1  UNL1        0.0954
      3 C         139.1820  139.1716  159.9469 C.3     1  UNL1        0.0430
      4 C         139.9332  138.2295  160.8403 C.3     1  UNL1        0.0955
      5 N         139.7116  138.6608  162.2598 N.am    1  UNL1       -0.2759
      6 C         140.2785  137.9996  163.4809 C.2     1  UNL1        0.2506
      7 O         141.1560  136.7911  163.3405 O.2     1  UNL1       -0.2699
      8 C         138.8235  139.8696  162.2436 C.3     1  UNL1        0.0955
      9 C         138.4962  140.1853  160.8142 C.3     1  UNL1        0.0430
     10 C         137.7451  141.1274  159.9207 C.3     1  UNL1        0.0954
     11 C         137.7748  144.7521  155.2593 C.3     1  UNL1        0.0522
     12 C         137.3038  143.3853  155.6591 C.ar    1  UNL1        0.0634
     13 C         136.2658  142.6797  154.8377 C.ar    1  UNL1        0.0296
     14 C         135.7947  141.3129  155.2375 C.ar    1  UNL1        0.0634
     15 C         134.7567  140.6073  154.4162 C.3     1  UNL1        0.0522
     16 N         136.3617  140.6517  156.4587 N.ar    1  UNL1       -0.2180
     17 C         137.3998  141.3572  157.2801 C.ar    1  UNL1        0.2195
     18 N         137.8708  142.7241  156.8803 N.ar    1  UNL1       -0.2180
     19 C         139.9681  138.5468  164.8426 C.ar    1  UNL1        0.0752
     20 C         138.6376  138.2689  165.4771 C.ar    1  UNL1        0.0357
     21 C         138.3271  138.8161  166.8389 C.ar    1  UNL1        0.1404
     22 F         136.9966  138.5381  167.4733 F       1  UNL1       -0.2042
     23 C         139.3471  139.6412  167.5660 C.ar    1  UNL1        0.0312
     24 C         140.6776  139.9192  166.9315 C.ar    1  UNL1        0.0234
     25 C         140.9880  139.3720  165.5698 C.ar    1  UNL1        0.1074
     26 N         142.3185  139.6499  164.9353 N.ar    1  UNL1       -0.1477
     27 N         142.6378  140.7969  164.0229 N.ar    1  UNL1       -0.1447
     28 C         144.0799  140.6855  163.6255 C.ar    1  UNL1        0.1446
     29 C         144.6519  139.4697  164.2923 C.ar    1  UNL1        0.1446
     30 N         143.5633  138.8297  165.1018 N.ar    1  UNL1       -0.1447
@<TRIPOS>BOND
     1    11    12    1
     2    12    13   ar
     3    13    14   ar
     4    14    15    1
     5    14    16   ar
     6    16    17   ar
     7    17     1    1
     8     1     2    1
     9     3     2    1
    10     3     4    1
    11     4     5    1
    12     5     6   am
    13     6     7    2
    14     6    19    1
    15    19    20   ar
    16    20    21   ar
    17    21    22    1
    18    21    23   ar
    19    23    24   ar
    20    24    25   ar
    21    25    26    1
    22    26    27   ar
    23    27    28   ar
    24    28    29   ar
    25    29    30   ar
    26     5     8    1
    27     9     8    1
    28     9    10    1
    29    17    18   ar
    30    18    12   ar
    31    10     1    1
    32     9     3    1
    33    25    19   ar
    34    30    26   ar
@<TRIPOS>MOLECULE
*****
 30 34 0 0 0
SMALL
GASTEIGER

@<TRIPOS>ATOM
      1 N         142.8963  142.0688  161.2851 N.pl3   1  UNL1       -0.2781
      2 C         143.3266  140.7380  161.8271 C.3     1  UNL1        0.0954
      3 C         143.0859  140.7408  163.3077 C.3     1  UNL1        0.0430
      4 C         143.2031  139.9200  164.5577 C.3     1  UNL1        0.0955
      5 N         142.6965  140.7452  165.7034 N.am    1  UNL1       -0.2759
      6 C         142.6316  140.3151  167.1388 C.2     1  UNL1        0.2506
      7 O         143.1006  138.9461  167.5336 O.2     1  UNL1       -0.2699
      8 C         142.2661  142.0760  165.1613 C.3     1  UNL1        0.0955
      9 C         142.5068  142.0733  163.6807 C.3     1  UNL1        0.0430
     10 C         142.3896  142.8941  162.4307 C.3     1  UNL1        0.0954
     11 C         142.0997  145.6714  157.6264 C.3     1  UNL1        0.0522
     12 C         142.5629  144.3002  158.0202 C.ar    1  UNL1        0.0634
     13 C         143.0910  143.3590  156.9784 C.ar    1  UNL1        0.0296
     14 C         143.5542  141.9878  157.3722 C.ar    1  UNL1        0.0634
     15 C         144.0824  141.0466  156.3305 C.3     1  UNL1        0.0522
     16 N         143.4893  141.5577  158.8078 N.ar    1  UNL1       -0.2180
     17 C         142.9612  142.4989  159.8496 C.ar    1  UNL1        0.2195
     18 N         142.4980  143.8701  159.4558 N.ar    1  UNL1       -0.2180
     19 C         142.0976  141.2540  168.1797 C.ar    1  UNL1        0.0752
     20 C         143.0442  142.0573  169.0215 C.ar    1  UNL1        0.0357
     21 C         142.5103  142.9963  170.0624 C.ar    1  UNL1        0.1404
     22 F         143.4570  143.7995  170.9041 F       1  UNL1       -0.2042
     23 C         141.0299  143.1319  170.2614 C.ar    1  UNL1        0.0312
     24 C         140.0831  142.3286  169.4196 C.ar    1  UNL1        0.0234
     25 C         140.6171  141.3897  168.3788 C.ar    1  UNL1        0.1074
     26 N         139.6705  140.5864  167.5370 N.ar    1  UNL1       -0.1477
     27 N         139.2847  140.8818  166.1178 N.ar    1  UNL1       -0.1447
     28 C         138.3192  139.8247  165.6703 C.ar    1  UNL1        0.1446
     29 C         138.1083  138.8759  166.8129 C.ar    1  UNL1        0.1446
     30 N         138.9434  139.3468  167.9665 N.ar    1  UNL1       -0.1447
@<TRIPOS>BOND
     1    11    12    1
     2    12    13   ar
     3    13    14   ar
     4    14    15    1
     5    14    16   ar
     6    16    17   ar
     7    17     1    1
     8     1     2    1
     9     3     2    1
    10     3     4    1
    11     4     5    1
    12     5     6   am
    13     6     7    2
    14     6    19    1
    15    19    20   ar
    16    20    21   ar
    17    21    22    1
    18    21    23   ar
    19    23    24   ar
    20    24    25   ar
    21    25    26    1
    22    26    27   ar
    23    27    28   ar
    24    28    29   ar
    25    29    30   ar
    26     5     8    1
    27     9     8    1
    28     9    10    1
    29    17    18   ar
    30    18    12   ar
    31    10     1    1
    32     9     3    1
    33    25    19   ar
    34    30    26   ar
@<TRIPOS>MOLECULE
*****
 30 34 0 0 0
SMALL
GASTEIGER

@<TRIPOS>ATOM
      1 N         142.1174  139.0519  159.3358 N.pl3   1  UNL1       -0.2781
      2 C         142.9360  140.3059  159.2508 C.3     1  UNL1        0.0954
      3 C         142.8880  140.9824  160.5887 C.3     1  UNL1        0.0430
      4 C         143.3643  142.1755  161.3631 C.3     1  UNL1        0.0955
      5 N         142.8103  142.0770  162.7536 N.am    1  UNL1       -0.2759
      6 C         143.0355  143.0599  163.8640 C.2     1  UNL1        0.2506
      7 O         143.8827  144.2754  163.6295 O.2     1  UNL1       -0.2699
      8 C         141.9917  140.8229  162.8386 C.3     1  UNL1        0.0955
      9 C         142.0397  140.1465  161.5006 C.3     1  UNL1        0.0430
     10 C         141.5634  138.9533  160.7263 C.3     1  UNL1        0.0954
     11 C         139.0853  137.1139  155.5875 C.3     1  UNL1        0.0522
     12 C         140.3762  137.0999  156.3512 C.ar    1  UNL1        0.0634
     13 C         141.4420  136.1030  156.0044 C.ar    1  UNL1        0.0296
     14 C         142.7329  136.0891  156.7681 C.ar    1  UNL1        0.0634
     15 C         143.7988  135.0922  156.4214 C.3     1  UNL1        0.0522
     16 N         142.9580  137.0721  157.8786 N.ar    1  UNL1       -0.2180
     17 C         141.8922  138.0690  158.2253 C.ar    1  UNL1        0.2195
     18 N         140.6013  138.0829  157.4616 N.ar    1  UNL1       -0.2180
     19 C         142.4134  142.8275  165.2090 C.ar    1  UNL1        0.0752
     20 C         143.2473  142.3043  166.3407 C.ar    1  UNL1        0.0357
     21 C         142.6252  142.0718  167.6857 C.ar    1  UNL1        0.1404
     22 F         143.4593  141.5486  168.8174 F       1  UNL1       -0.2042
     23 C         141.1693  142.3625  167.8990 C.ar    1  UNL1        0.0312
     24 C         140.3353  142.8857  166.7673 C.ar    1  UNL1        0.0234
     25 C         140.9573  143.1181  165.4223 C.ar    1  UNL1        0.1074
     26 N         140.1234  143.6413  164.2906 N.ar    1  UNL1       -0.1477
     27 N         140.1493  145.0401  163.7495 N.ar    1  UNL1       -0.1447
     28 C         139.1590  145.1208  162.6258 C.ar    1  UNL1        0.1446
     29 C         138.5211  143.7720  162.4723 C.ar    1  UNL1        0.1446
     30 N         139.1171  142.8576  163.5013 N.ar    1  UNL1       -0.1447
@<TRIPOS>BOND
     1    11    12    1
     2    12    13   ar
     3    13    14   ar
     4    14    15    1
     5    14    16   ar
     6    16    17   ar
     7    17     1    1
     8     1     2    1
     9     3     2    1
    10     3     4    1
    11     4     5    1
    12     5     6   am
    13     6     7    2
    14     6    19    1
    15    19    20   ar
    16    20    21   ar
    17    21    22    1
    18    21    23   ar
    19    23    24   ar
    20    24    25   ar
    21    25    26    1
    22    26    27   ar
    23    27    28   ar
    24    28    29   ar
    25    29    30   ar
    26     5     8    1
    27     9     8    1
    28     9    10    1
    29    17    18   ar
    30    18    12   ar
    31    10     1    1
    32     9     3    1
    33    25    19   ar
    34    30    26   ar
@<TRIPOS>MOLECULE
*****
 30 34 0 0 0
SMALL
GASTEIGER

@<TRIPOS>ATOM
      1 N         141.0815  138.4350  158.3532 N.pl3   1  UNL1       -0.2781
      2 C         139.6834  138.9783  158.3436 C.3     1  UNL1        0.0954
      3 C         139.4094  139.5765  159.6916 C.3     1  UNL1        0.0430
      4 C         138.3759  140.2819  160.5188 C.3     1  UNL1        0.0955
      5 N         138.9659  140.5444  161.8728 N.am    1  UNL1       -0.2759
      6 C         138.2786  141.2297  163.0163 C.2     1  UNL1        0.2506
      7 O         136.8707  141.7227  162.8584 O.2     1  UNL1       -0.2699
      8 C         140.3641  140.0010  161.8823 C.3     1  UNL1        0.0955
      9 C         140.6381  139.4029  160.5343 C.3     1  UNL1        0.0430
     10 C         141.6716  138.6974  159.7070 C.3     1  UNL1        0.0954
     11 C         142.4209  138.3037  153.3343 C.3     1  UNL1        0.0522
     12 C         142.4386  137.6840  154.7002 C.ar    1  UNL1        0.0634
     13 C         143.1438  136.3788  154.9225 C.ar    1  UNL1        0.0296
     14 C         143.1615  135.7591  156.2883 C.ar    1  UNL1        0.0634
     15 C         143.8666  134.4540  156.5107 C.3     1  UNL1        0.0522
     16 N         142.4740  136.4445  157.4319 N.ar    1  UNL1       -0.2180
     17 C         141.7689  137.7497  157.2096 C.ar    1  UNL1        0.2195
     18 N         141.7512  138.3694  155.8437 N.ar    1  UNL1       -0.2180
     19 C         138.9990  141.4220  164.3178 C.ar    1  UNL1        0.0752
     20 C         138.8789  140.3914  165.4010 C.ar    1  UNL1        0.0357
     21 C         139.5993  140.5837  166.7026 C.ar    1  UNL1        0.1404
     22 F         139.4791  139.5530  167.7857 F       1  UNL1       -0.2042
     23 C         140.4398  141.8067  166.9210 C.ar    1  UNL1        0.0312
     24 C         140.5600  142.8375  165.8378 C.ar    1  UNL1        0.0234
     25 C         139.8396  142.6451  164.5363 C.ar    1  UNL1        0.1074
     26 N         139.9597  143.6758  163.4531 N.ar    1  UNL1       -0.1477
     27 N         139.1132  144.9056  163.3084 N.ar    1  UNL1       -0.1447
     28 C         139.5777  145.6475  162.0904 C.ar    1  UNL1        0.1446
     29 C         140.7114  144.8762  161.4822 C.ar    1  UNL1        0.1446
     30 N         140.9474  143.6576  162.3244 N.ar    1  UNL1       -0.1447
@<TRIPOS>BOND
     1    11    12    1
     2    12    13   ar
     3    13    14   ar
     4    14    15    1
     5    14    16   ar
     6    16    17   ar
     7    17     1    1
     8     1     2    1
     9     3     2    1
    10     3     4    1
    11     4     5    1
    12     5     6   am
    13     6     7    2
    14     6    19    1
    15    19    20   ar
    16    20    21   ar
    17    21    22    1
    18    21    23   ar
    19    23    24   ar
    20    24    25   ar
    21    25    26    1
    22    26    27   ar
    23    27    28   ar
    24    28    29   ar
    25    29    30   ar
    26     5     8    1
    27     9     8    1
    28     9    10    1
    29    17    18   ar
    30    18    12   ar
    31    10     1    1
    32     9     3    1
    33    25    19   ar
    34    30    26   ar
@<TRIPOS>MOLECULE
*****
 30 34 0 0 0
SMALL
GASTEIGER

@<TRIPOS>ATOM
      1 N         140.2888  144.6632  158.6414 N.pl3   1  UNL1       -0.2781
      2 C         140.3535  145.3688  159.9635 C.3     1  UNL1        0.0954
      3 C         140.4937  144.3303  161.0367 C.3     1  UNL1        0.0430
      4 C         140.6203  144.1245  162.5171 C.3     1  UNL1        0.0955
      5 N         140.7205  142.6500  162.7734 N.am    1  UNL1       -0.2759
      6 C         140.8608  141.9959  164.1158 C.2     1  UNL1        0.2506
      7 O         140.9120  142.8357  165.3577 O.2     1  UNL1       -0.2699
      8 C         140.6559  141.9444  161.4512 C.3     1  UNL1        0.0955
      9 C         140.5156  142.9829  160.3779 C.3     1  UNL1        0.0430
     10 C         140.3890  143.1886  158.8975 C.3     1  UNL1        0.0954
     11 C         140.9291  144.5393  153.4864 C.3     1  UNL1        0.0522
     12 C         140.4686  145.2554  154.7213 C.ar    1  UNL1        0.0634
     13 C         139.8678  146.6256  154.6137 C.ar    1  UNL1        0.0296
     14 C         139.4073  147.3417  155.8487 C.ar    1  UNL1        0.0634
     15 C         138.8066  148.7119  155.7412 C.3     1  UNL1        0.0522
     16 N         139.5477  146.6875  157.1913 N.ar    1  UNL1       -0.2180
     17 C         140.1485  145.3173  157.2988 C.ar    1  UNL1        0.2195
     18 N         140.6090  144.6012  156.0639 N.ar    1  UNL1       -0.2180
     19 C         140.9500  140.5019  164.2166 C.ar    1  UNL1        0.0752
     20 C         139.7239  139.6969  164.5307 C.ar    1  UNL1        0.0357
     21 C         139.8131  138.2029  164.6315 C.ar    1  UNL1        0.1404
     22 F         138.5869  137.3980  164.9457 F       1  UNL1       -0.2042
     23 C         141.1282  137.5140  164.4182 C.ar    1  UNL1        0.0312
     24 C         142.3544  138.3189  164.1040 C.ar    1  UNL1        0.0234
     25 C         142.2652  139.8129  164.0032 C.ar    1  UNL1        0.1074
     26 N         143.4913  140.6179  163.6891 N.ar    1  UNL1       -0.1477
     27 N         144.3970  141.2720  164.6900 N.ar    1  UNL1       -0.1447
     28 C         145.4924  141.9685  163.9384 C.ar    1  UNL1        0.1446
     29 C         145.2637  141.7448  162.4729 C.ar    1  UNL1        0.1446
     30 N         144.0270  140.9101  162.3189 N.ar    1  UNL1       -0.1447
@<TRIPOS>BOND
     1    11    12    1
     2    12    13   ar
     3    13    14   ar
     4    14    15    1
     5    14    16   ar
     6    16    17   ar
     7    17     1    1
     8     1     2    1
     9     3     2    1
    10     3     4    1
    11     4     5    1
    12     5     6   am
    13     6     7    2
    14     6    19    1
    15    19    20   ar
    16    20    21   ar
    17    21    22    1
    18    21    23   ar
    19    23    24   ar
    20    24    25   ar
    21    25    26    1
    22    26    27   ar
    23    27    28   ar
    24    28    29   ar
    25    29    30   ar
    26     5     8    1
    27     9     8    1
    28     9    10    1
    29    17    18   ar
    30    18    12   ar
    31    10     1    1
    32     9     3    1
    33    25    19   ar
    34    30    26   ar
@<TRIPOS>MOLECULE
*****
 30 34 0 0 0
SMALL
GASTEIGER

@<TRIPOS>ATOM
      1 N         141.9818  137.9817  158.0076 N.pl3   1  UNL1       -0.2781
      2 C         140.6066  138.3321  158.4932 C.3     1  UNL1        0.0954
      3 C         140.7441  139.3783  159.5593 C.3     1  UNL1        0.0430
      4 C         139.9791  140.2415  160.5183 C.3     1  UNL1        0.0955
      5 N         140.9666  141.0711  161.2844 N.am    1  UNL1       -0.2759
      6 C         140.6367  142.0749  162.3490 C.2     1  UNL1        0.2506
      7 O         139.2072  142.3204  162.7313 O.2     1  UNL1       -0.2699
      8 C         142.3419  140.7206  160.7987 C.3     1  UNL1        0.0955
      9 C         142.2043  139.6744  159.7326 C.3     1  UNL1        0.0430
     10 C         142.9693  138.8112  158.7736 C.3     1  UNL1        0.0954
     11 C         141.8954  136.5152  153.0235 C.3     1  UNL1        0.0522
     12 C         142.2686  136.2445  154.4509 C.ar    1  UNL1        0.0634
     13 C         142.9716  134.9701  154.8136 C.ar    1  UNL1        0.0296
     14 C         143.3447  134.6995  156.2410 C.ar    1  UNL1        0.0634
     15 C         144.0477  133.4251  156.6039 C.3     1  UNL1        0.0522
     16 N         143.0147  135.7034  157.3057 N.ar    1  UNL1       -0.2180
     17 C         142.3117  136.9778  156.9429 C.ar    1  UNL1        0.2195
     18 N         141.9386  137.2484  155.5155 N.ar    1  UNL1       -0.2180
     19 C         141.7364  142.8332  163.0314 C.ar    1  UNL1        0.0752
     20 C         142.2628  142.3625  164.3547 C.ar    1  UNL1        0.0357
     21 C         143.3625  143.1209  165.0372 C.ar    1  UNL1        0.1404
     22 F         143.8889  142.6500  166.3605 F       1  UNL1       -0.2042
     23 C         143.9357  144.3499  164.3963 C.ar    1  UNL1        0.0312
     24 C         143.4093  144.8207  163.0729 C.ar    1  UNL1        0.0234
     25 C         142.3096  144.0623  162.3905 C.ar    1  UNL1        0.1074
     26 N         141.7832  144.5331  161.0671 N.ar    1  UNL1       -0.1477
     27 N         140.5428  145.3485  160.8513 N.ar    1  UNL1       -0.1447
     28 C         140.3977  145.5904  159.3780 C.ar    1  UNL1        0.1446
     29 C         141.5484  144.9245  158.6834 C.ar    1  UNL1        0.1446
     30 N         142.4046  144.2711  159.7273 N.ar    1  UNL1       -0.1447
@<TRIPOS>BOND
     1    11    12    1
     2    12    13   ar
     3    13    14   ar
     4    14    15    1
     5    14    16   ar
     6    16    17   ar
     7    17     1    1
     8     1     2    1
     9     3     2    1
    10     3     4    1
    11     4     5    1
    12     5     6   am
    13     6     7    2
    14     6    19    1
    15    19    20   ar
    16    20    21   ar
    17    21    22    1
    18    21    23   ar
    19    23    24   ar
    20    24    25   ar
    21    25    26    1
    22    26    27   ar
    23    27    28   ar
    24    28    29   ar
    25    29    30   ar
    26     5     8    1
    27     9     8    1
    28     9    10    1
    29    17    18   ar
    30    18    12   ar
    31    10     1    1
    32     9     3    1
    33    25    19   ar
    34    30    26   ar
