@<TRIPOS>MOLECULE
*****
 27 30 0 0 0
SMALL
GASTEIGER

@<TRIPOS>ATOM
      1 C         140.8197  137.5545  164.6899 C.3     1  UNL1        0.0559
      2 C         140.7571  138.1861  163.3308 C.3     1  UNL1        0.2097
      3 N         141.3271  137.6153  162.0662 N.pl3   1  UNL1       -0.2169
      4 C         141.0358  138.5759  160.9515 C.2     1  UNL1        0.3355
      5 N         140.2858  139.7403  161.5272 N.2     1  UNL1       -0.0600
      6 C         140.1135  139.4995  162.9977 C.3     1  UNL1        0.2515
      7 H         141.8079  136.7603  161.9825 H       1  UNL1        0.2923
      8 C         139.7927  139.5347  164.4625 C.ar    1  UNL1        0.0297
      9 C         140.7760  140.1211  165.4317 C.ar    1  UNL1        0.0025
     10 C         140.4552  140.1564  166.8967 C.ar    1  UNL1        0.0295
     11 C         139.1512  139.6052  167.3923 C.ar    1  UNL1        0.1401
     12 F         138.8304  139.6405  168.8572 F       1  UNL1       -0.2042
     13 C         138.1678  139.0188  166.4231 C.ar    1  UNL1        0.0295
     14 C         138.4886  138.9836  164.9582 C.ar    1  UNL1        0.0025
     15 C         139.4029  140.8202  162.9708 C.ar    1  UNL1        0.0488
     16 C         140.1312  142.0718  163.3620 C.ar    1  UNL1        0.0057
     17 C         139.4205  143.3925  163.3351 C.ar    1  UNL1        0.0495
     18 C         137.9816  143.4616  162.9171 C.ar    1  UNL1        0.2223
     19 F         137.2710  144.7824  162.8903 F       1  UNL1       -0.1832
     20 N         137.2534  142.2100  162.5259 N.ar    1  UNL1       -0.2166
     21 C         137.9640  140.8893  162.5528 C.ar    1  UNL1        0.1014
     22 C         141.4261  138.4023  159.5135 C.ar    1  UNL1        0.1819
     23 C         142.8706  138.4687  159.1152 C.ar    1  UNL1        0.1255
     24 N         143.2608  138.2952  157.6773 N.ar    1  UNL1       -0.2389
     25 C         142.2064  138.0553  156.6377 C.ar    1  UNL1        0.1195
     26 C         140.7618  137.9889  157.0361 C.ar    1  UNL1        0.1198
     27 N         140.3717  138.1624  158.4740 N.ar    1  UNL1       -0.2333
@<TRIPOS>BOND
     1     2     1    1
     2     2     3    1
     3     3     4    1
     4     4    22    1
     5    22    23   ar
     6    23    24   ar
     7    24    25   ar
     8    25    26   ar
     9    26    27   ar
    10     4     5    2
    11     5     6    1
    12     6     8    1
    13     8     9   ar
    14     9    10   ar
    15    10    11   ar
    16    11    12    1
    17    11    13   ar
    18    13    14   ar
    19     6    15    1
    20    15    16   ar
    21    16    17   ar
    22    17    18   ar
    23    18    19    1
    24    18    20   ar
    25    20    21   ar
    26     6     2    1
    27    14     8   ar
    28    21    15   ar
    29    27    22   ar
    30     3     7    1
@<TRIPOS>MOLECULE
*****
 27 30 0 0 0
SMALL
GASTEIGER

@<TRIPOS>ATOM
      1 C         142.3867  139.5411  168.1013 C.3     1  UNL1        0.0559
      2 C         142.0936  139.6187  166.6323 C.3     1  UNL1        0.2097
      3 N         142.7029  138.7586  165.5650 N.pl3   1  UNL1       -0.2169
      4 C         142.1256  139.1783  164.2457 C.2     1  UNL1        0.3355
      5 N         141.1595  140.2978  164.4976 N.2     1  UNL1       -0.0600
      6 C         141.1397  140.5699  165.9725 C.3     1  UNL1        0.2515
      7 H         143.3655  138.0442  165.7057 H       1  UNL1        0.2923
      8 C         140.9105  141.0625  167.3707 C.ar    1  UNL1        0.0297
      9 C         141.8107  142.1112  167.9534 C.ar    1  UNL1        0.0025
     10 C         141.5816  142.6038  169.3516 C.ar    1  UNL1        0.0295
     11 C         140.4522  142.0476  170.1670 C.ar    1  UNL1        0.1401
     12 F         140.2230  142.5401  171.5652 F       1  UNL1       -0.2042
     13 C         139.5518  140.9987  169.5843 C.ar    1  UNL1        0.0295
     14 C         139.7810  140.5062  168.1861 C.ar    1  UNL1        0.0025
     15 C         140.1378  141.6241  165.6051 C.ar    1  UNL1        0.0488
     16 C         140.4825  143.0750  165.7665 C.ar    1  UNL1        0.0057
     17 C         139.4806  144.1292  165.3991 C.ar    1  UNL1        0.0495
     18 C         138.1342  143.7325  164.8703 C.ar    1  UNL1        0.2223
     19 F         137.1324  144.7868  164.5029 F       1  UNL1       -0.1832
     20 N         137.7896  142.2817  164.7089 N.ar    1  UNL1       -0.2166
     21 C         138.7914  141.2274  165.0763 C.ar    1  UNL1        0.1014
     22 C         142.4564  138.5830  162.9091 C.ar    1  UNL1        0.1819
     23 C         141.3548  138.1752  161.9764 C.ar    1  UNL1        0.1255
     24 N         141.6856  137.5800  160.6399 N.ar    1  UNL1       -0.2389
     25 C         143.1180  137.3926  160.2362 C.ar    1  UNL1        0.1195
     26 C         144.2196  137.8004  161.1689 C.ar    1  UNL1        0.1198
     27 N         143.8888  138.3956  162.5054 N.ar    1  UNL1       -0.2333
@<TRIPOS>BOND
     1     2     1    1
     2     2     3    1
     3     3     4    1
     4     4    22    1
     5    22    23   ar
     6    23    24   ar
     7    24    25   ar
     8    25    26   ar
     9    26    27   ar
    10     4     5    2
    11     5     6    1
    12     6     8    1
    13     8     9   ar
    14     9    10   ar
    15    10    11   ar
    16    11    12    1
    17    11    13   ar
    18    13    14   ar
    19     6    15    1
    20    15    16   ar
    21    16    17   ar
    22    17    18   ar
    23    18    19    1
    24    18    20   ar
    25    20    21   ar
    26     6     2    1
    27    14     8   ar
    28    21    15   ar
    29    27    22   ar
    30     3     7    1
@<TRIPOS>MOLECULE
*****
 27 30 0 0 0
SMALL
GASTEIGER

@<TRIPOS>ATOM
      1 C         137.6347  140.7247  163.1404 C.3     1  UNL1        0.0559
      2 C         138.8549  141.3222  162.5048 C.3     1  UNL1        0.2097
      3 N         138.8665  142.3555  161.4175 N.pl3   1  UNL1       -0.2169
      4 C         140.2966  142.6632  161.0856 C.2     1  UNL1        0.3355
      5 N         141.1689  141.8202  161.9678 N.2     1  UNL1       -0.0600
      6 C         140.2779  140.9914  162.8449 C.3     1  UNL1        0.2515
      7 H         138.0745  142.7605  160.9957 H       1  UNL1        0.2923
      8 C         139.6573  140.0525  163.8365 C.ar    1  UNL1        0.0297
      9 C         139.4582  138.6092  163.4797 C.ar    1  UNL1        0.0025
     10 C         138.8376  137.6701  164.4712 C.ar    1  UNL1        0.0295
     11 C         138.4160  138.1744  165.8195 C.ar    1  UNL1        0.1401
     12 F         137.7954  137.2355  166.8110 F       1  UNL1       -0.2042
     13 C         138.6151  139.6178  166.1763 C.ar    1  UNL1        0.0295
     14 C         139.2357  140.5568  165.1848 C.ar    1  UNL1        0.0025
     15 C         141.5712  140.4643  163.3924 C.ar    1  UNL1        0.0488
     16 C         142.0879  140.9648  164.7086 C.ar    1  UNL1        0.0057
     17 C         143.3811  140.4377  165.2561 C.ar    1  UNL1        0.0495
     18 C         144.1576  139.4100  164.4873 C.ar    1  UNL1        0.2223
     19 F         145.4509  138.8829  165.0348 F       1  UNL1       -0.1832
     20 N         143.6409  138.9096  163.1711 N.ar    1  UNL1       -0.2166
     21 C         142.3476  139.4367  162.6236 C.ar    1  UNL1        0.1014
     22 C         140.7710  143.6422  160.0528 C.ar    1  UNL1        0.1819
     23 C         142.1755  143.5617  159.5324 C.ar    1  UNL1        0.1255
     24 N         142.6499  144.5406  158.4997 N.ar    1  UNL1       -0.2389
     25 C         141.7198  145.6000  157.9873 C.ar    1  UNL1        0.1195
     26 C         140.3153  145.6805  158.5077 C.ar    1  UNL1        0.1198
     27 N         139.8409  144.7016  159.5404 N.ar    1  UNL1       -0.2333
@<TRIPOS>BOND
     1     2     1    1
     2     2     3    1
     3     3     4    1
     4     4    22    1
     5    22    23   ar
     6    23    24   ar
     7    24    25   ar
     8    25    26   ar
     9    26    27   ar
    10     4     5    2
    11     5     6    1
    12     6     8    1
    13     8     9   ar
    14     9    10   ar
    15    10    11   ar
    16    11    12    1
    17    11    13   ar
    18    13    14   ar
    19     6    15    1
    20    15    16   ar
    21    16    17   ar
    22    17    18   ar
    23    18    19    1
    24    18    20   ar
    25    20    21   ar
    26     6     2    1
    27    14     8   ar
    28    21    15   ar
    29    27    22   ar
    30     3     7    1
@<TRIPOS>MOLECULE
*****
 27 30 0 0 0
SMALL
GASTEIGER

@<TRIPOS>ATOM
      1 C         141.6626  143.4523  163.9333 C.3     1  UNL1        0.0559
      2 C         140.7197  142.6127  163.1235 C.3     1  UNL1        0.2097
      3 N         140.3107  142.8670  161.7029 N.pl3   1  UNL1       -0.2169
      4 C         139.3583  141.7828  161.2935 C.2     1  UNL1        0.3355
      5 N         139.1788  140.8584  162.4611 N.2     1  UNL1       -0.0600
      6 C         140.0201  141.3713  163.5921 C.3     1  UNL1        0.2515
      7 H         140.6140  143.6143  161.1383 H       1  UNL1        0.2923
      8 C         140.7469  141.6363  164.8772 C.ar    1  UNL1        0.0297
      9 C         142.1105  141.0530  165.1015 C.ar    1  UNL1        0.0025
     10 C         142.8375  141.3180  166.3867 C.ar    1  UNL1        0.0295
     11 C         142.2008  142.1662  167.4473 C.ar    1  UNL1        0.1401
     12 F         142.9276  142.4312  168.7324 F       1  UNL1       -0.2042
     13 C         140.8370  142.7495  167.2230 C.ar    1  UNL1        0.0295
     14 C         140.1102  142.4845  165.9379 C.ar    1  UNL1        0.0025
     15 C         139.4725  140.1853  164.3294 C.ar    1  UNL1        0.0488
     16 C         140.0969  138.8339  164.1452 C.ar    1  UNL1        0.0057
     17 C         139.5493  137.6479  164.8825 C.ar    1  UNL1        0.0495
     18 C         138.3773  137.8133  165.8039 C.ar    1  UNL1        0.2223
     19 F         137.8297  136.6273  166.5412 F       1  UNL1       -0.1832
     20 N         137.7529  139.1646  165.9881 N.ar    1  UNL1       -0.2166
     21 C         138.3005  140.3507  165.2508 C.ar    1  UNL1        0.1014
     22 C         138.7010  141.6468  159.9520 C.ar    1  UNL1        0.1819
     23 C         138.2247  140.3041  159.4828 C.ar    1  UNL1        0.1255
     24 N         137.5675  140.1682  158.1414 N.ar    1  UNL1       -0.2389
     25 C         137.3864  141.3751  157.2692 C.ar    1  UNL1        0.1195
     26 C         137.8627  142.7178  157.7384 C.ar    1  UNL1        0.1198
     27 N         138.5200  142.8537  159.0798 N.ar    1  UNL1       -0.2333
@<TRIPOS>BOND
     1     2     1    1
     2     2     3    1
     3     3     4    1
     4     4    22    1
     5    22    23   ar
     6    23    24   ar
     7    24    25   ar
     8    25    26   ar
     9    26    27   ar
    10     4     5    2
    11     5     6    1
    12     6     8    1
    13     8     9   ar
    14     9    10   ar
    15    10    11   ar
    16    11    12    1
    17    11    13   ar
    18    13    14   ar
    19     6    15    1
    20    15    16   ar
    21    16    17   ar
    22    17    18   ar
    23    18    19    1
    24    18    20   ar
    25    20    21   ar
    26     6     2    1
    27    14     8   ar
    28    21    15   ar
    29    27    22   ar
    30     3     7    1
@<TRIPOS>MOLECULE
*****
 27 30 0 0 0
SMALL
GASTEIGER

@<TRIPOS>ATOM
      1 C         138.1253  139.4245  162.5090 C.3     1  UNL1        0.0559
      2 C         139.0745  140.5659  162.2941 C.3     1  UNL1        0.2097
      3 N         139.1961  141.3884  161.0456 N.pl3   1  UNL1       -0.2169
      4 C         140.2655  142.4160  161.2699 C.2     1  UNL1        0.3355
      5 N         140.8049  142.2287  162.6569 N.2     1  UNL1       -0.0600
      6 C         140.0688  141.0852  163.2900 C.3     1  UNL1        0.2515
      7 H         138.6669  141.2739  160.2234 H       1  UNL1        0.2923
      8 C         139.5164  140.0030  164.1696 C.ar    1  UNL1        0.0297
      9 C         138.4586  140.3268  165.1826 C.ar    1  UNL1        0.0025
     10 C         137.9062  139.2446  166.0622 C.ar    1  UNL1        0.0295
     11 C         138.4116  137.8387  165.9289 C.ar    1  UNL1        0.1401
     12 F         137.8592  136.7565  166.8085 F       1  UNL1       -0.2042
     13 C         139.4695  137.5148  164.9158 C.ar    1  UNL1        0.0295
     14 C         140.0219  138.5970  164.0362 C.ar    1  UNL1        0.0025
     15 C         140.9476  141.3783  164.4697 C.ar    1  UNL1        0.0488
     16 C         140.4888  142.3389  165.5265 C.ar    1  UNL1        0.0057
     17 C         141.3676  142.6319  166.7062 C.ar    1  UNL1        0.0495
     18 C         142.7052  141.9644  166.8292 C.ar    1  UNL1        0.2223
     19 F         143.5840  142.2575  168.0090 F       1  UNL1       -0.1832
     20 N         143.1640  141.0038  165.7725 N.ar    1  UNL1       -0.2166
     21 C         142.2852  140.7107  164.5927 C.ar    1  UNL1        0.1014
     22 C         140.7164  143.4496  160.2807 C.ar    1  UNL1        0.1819
     23 C         142.1114  143.4037  159.7312 C.ar    1  UNL1        0.1255
     24 N         142.5622  144.4373  158.7421 N.ar    1  UNL1       -0.2389
     25 C         141.6181  145.5167  158.3024 C.ar    1  UNL1        0.1195
     26 C         140.2231  145.5627  158.8518 C.ar    1  UNL1        0.1198
     27 N         139.7723  144.5291  159.8410 N.ar    1  UNL1       -0.2333
@<TRIPOS>BOND
     1     2     1    1
     2     2     3    1
     3     3     4    1
     4     4    22    1
     5    22    23   ar
     6    23    24   ar
     7    24    25   ar
     8    25    26   ar
     9    26    27   ar
    10     4     5    2
    11     5     6    1
    12     6     8    1
    13     8     9   ar
    14     9    10   ar
    15    10    11   ar
    16    11    12    1
    17    11    13   ar
    18    13    14   ar
    19     6    15    1
    20    15    16   ar
    21    16    17   ar
    22    17    18   ar
    23    18    19    1
    24    18    20   ar
    25    20    21   ar
    26     6     2    1
    27    14     8   ar
    28    21    15   ar
    29    27    22   ar
    30     3     7    1
@<TRIPOS>MOLECULE
*****
 27 30 0 0 0
SMALL
GASTEIGER

@<TRIPOS>ATOM
      1 C         142.5827  139.5020  167.7002 C.3     1  UNL1        0.0559
      2 C         142.2234  139.6510  166.2515 C.3     1  UNL1        0.2097
      3 N         142.8058  138.8666  165.1134 N.pl3   1  UNL1       -0.2169
      4 C         142.1609  139.3414  163.8451 C.2     1  UNL1        0.3355
      5 N         141.1798  140.4193  164.1993 N.2     1  UNL1       -0.0600
      6 C         141.2184  140.6107  165.6866 C.3     1  UNL1        0.2515
      7 H         143.4911  138.1635  165.1861 H       1  UNL1        0.2923
      8 C         141.0391  141.0206  167.1183 C.ar    1  UNL1        0.0297
      9 C         139.9467  140.4068  167.9429 C.ar    1  UNL1        0.0025
     10 C         139.7674  140.8167  169.3747 C.ar    1  UNL1        0.0295
     11 C         140.6803  141.8402  169.9818 C.ar    1  UNL1        0.1401
     12 F         140.5010  142.2501  171.4135 F       1  UNL1       -0.2042
     13 C         141.7728  142.4541  169.1571 C.ar    1  UNL1        0.0295
     14 C         141.9521  142.0442  167.7254 C.ar    1  UNL1        0.0025
     15 C         140.1759  141.6560  165.4210 C.ar    1  UNL1        0.0488
     16 C         140.4896  143.1043  165.6540 C.ar    1  UNL1        0.0057
     17 C         139.4471  144.1496  165.3884 C.ar    1  UNL1        0.0495
     18 C         138.0910  143.7467  164.8898 C.ar    1  UNL1        0.2223
     19 F         137.0486  144.7922  164.6243 F       1  UNL1       -0.1832
     20 N         137.7773  142.2986  164.6568 N.ar    1  UNL1       -0.2166
     21 C         138.8198  141.2532  164.9224 C.ar    1  UNL1        0.1014
     22 C         142.4469  138.8283  162.4648 C.ar    1  UNL1        0.1819
     23 C         143.8142  138.3143  162.1241 C.ar    1  UNL1        0.1255
     24 N         144.1001  137.8013  160.7439 N.ar    1  UNL1       -0.2389
     25 C         143.0187  137.8023  159.7044 C.ar    1  UNL1        0.1195
     26 C         141.6514  138.3164  160.0451 C.ar    1  UNL1        0.1198
     27 N         141.3655  138.8294  161.4253 N.ar    1  UNL1       -0.2333
@<TRIPOS>BOND
     1     2     1    1
     2     2     3    1
     3     3     4    1
     4     4    22    1
     5    22    23   ar
     6    23    24   ar
     7    24    25   ar
     8    25    26   ar
     9    26    27   ar
    10     4     5    2
    11     5     6    1
    12     6     8    1
    13     8     9   ar
    14     9    10   ar
    15    10    11   ar
    16    11    12    1
    17    11    13   ar
    18    13    14   ar
    19     6    15    1
    20    15    16   ar
    21    16    17   ar
    22    17    18   ar
    23    18    19    1
    24    18    20   ar
    25    20    21   ar
    26     6     2    1
    27    14     8   ar
    28    21    15   ar
    29    27    22   ar
    30     3     7    1
@<TRIPOS>MOLECULE
*****
 27 30 0 0 0
SMALL
GASTEIGER

@<TRIPOS>ATOM
      1 C         141.6275  145.3010  163.5793 C.3     1  UNL1        0.0559
      2 C         141.2598  144.8318  162.2028 C.3     1  UNL1        0.2097
      3 N         141.6257  145.5068  160.9142 N.pl3   1  UNL1       -0.2169
      4 C         141.0537  144.6974  159.7883 C.2     1  UNL1        0.3355
      5 N         140.3343  143.5221  160.3810 N.2     1  UNL1       -0.0600
      6 C         140.4617  143.6052  161.8733 C.3     1  UNL1        0.2515
      7 H         142.1493  146.3355  160.8234 H       1  UNL1        0.2923
      8 C         140.4205  143.4239  163.3617 C.ar    1  UNL1        0.0297
      9 C         139.3303  144.0682  164.1657 C.ar    1  UNL1        0.0025
     10 C         139.2890  143.8870  165.6543 C.ar    1  UNL1        0.0295
     11 C         140.3379  143.0615  166.3386 C.ar    1  UNL1        0.1401
     12 F         140.2966  142.8803  167.8270 F       1  UNL1       -0.2042
     13 C         141.4281  142.4172  165.5345 C.ar    1  UNL1        0.0295
     14 C         141.4694  142.5984  164.0461 C.ar    1  UNL1        0.0025
     15 C         139.6550  142.3407  161.8549 C.ar    1  UNL1        0.0488
     16 C         140.3445  141.0126  161.7509 C.ar    1  UNL1        0.0057
     17 C         139.5378  139.7482  161.7326 C.ar    1  UNL1        0.0495
     18 C         138.0416  139.8118  161.8183 C.ar    1  UNL1        0.2223
     19 F         137.2349  138.5473  161.7999 F       1  UNL1       -0.1832
     20 N         137.3521  141.1398  161.9223 N.ar    1  UNL1       -0.2166
     21 C         138.1588  142.4044  161.9406 C.ar    1  UNL1        0.1014
     22 C         141.1791  145.0086  158.3262 C.ar    1  UNL1        0.1819
     23 C         142.2807  144.3882  157.5192 C.ar    1  UNL1        0.1255
     24 N         142.4061  144.6994  156.0572 N.ar    1  UNL1       -0.2389
     25 C         141.4298  145.6311  155.4023 C.ar    1  UNL1        0.1195
     26 C         140.3282  146.2515  156.2094 C.ar    1  UNL1        0.1198
     27 N         140.2028  145.9402  157.6714 N.ar    1  UNL1       -0.2333
@<TRIPOS>BOND
     1     2     1    1
     2     2     3    1
     3     3     4    1
     4     4    22    1
     5    22    23   ar
     6    23    24   ar
     7    24    25   ar
     8    25    26   ar
     9    26    27   ar
    10     4     5    2
    11     5     6    1
    12     6     8    1
    13     8     9   ar
    14     9    10   ar
    15    10    11   ar
    16    11    12    1
    17    11    13   ar
    18    13    14   ar
    19     6    15    1
    20    15    16   ar
    21    16    17   ar
    22    17    18   ar
    23    18    19    1
    24    18    20   ar
    25    20    21   ar
    26     6     2    1
    27    14     8   ar
    28    21    15   ar
    29    27    22   ar
    30     3     7    1
@<TRIPOS>MOLECULE
*****
 27 30 0 0 0
SMALL
GASTEIGER

@<TRIPOS>ATOM
      1 C         139.3028  138.7733  163.6758 C.3     1  UNL1        0.0559
      2 C         139.4884  139.9128  164.6334 C.3     1  UNL1        0.2097
      3 N         139.6940  139.7953  166.1145 N.pl3   1  UNL1       -0.2169
      4 C         139.8337  141.1798  166.6745 C.2     1  UNL1        0.3355
      5 N         139.7144  142.1531  165.5394 N.2     1  UNL1       -0.0600
      6 C         139.5010  141.3701  164.2779 C.3     1  UNL1        0.2515
      7 H         139.7308  138.9566  166.6289 H       1  UNL1        0.2923
      8 C         139.2806  140.8699  162.8811 C.ar    1  UNL1        0.0297
      9 C         140.4519  140.6448  161.9716 C.ar    1  UNL1        0.0025
     10 C         140.2316  140.1446  160.5746 C.ar    1  UNL1        0.0295
     11 C         138.8399  139.8694  160.0874 C.ar    1  UNL1        0.1401
     12 F         138.6195  139.3692  158.6905 F       1  UNL1       -0.2042
     13 C         137.6685  140.0945  160.9970 C.ar    1  UNL1        0.0295
     14 C         137.8889  140.5947  162.3938 C.ar    1  UNL1        0.0025
     15 C         139.4675  142.7228  163.6305 C.ar    1  UNL1        0.0488
     16 C         140.7468  143.4608  163.3686 C.ar    1  UNL1        0.0057
     17 C         140.7134  144.8134  162.7211 C.ar    1  UNL1        0.0495
     18 C         139.4005  145.4280  162.3355 C.ar    1  UNL1        0.2223
     19 F         139.3671  146.7807  161.6880 F       1  UNL1       -0.1832
     20 N         138.1212  144.6901  162.5974 N.ar    1  UNL1       -0.2166
     21 C         138.1547  143.3374  163.2449 C.ar    1  UNL1        0.1014
     22 C         140.0540  141.5296  168.1165 C.ar    1  UNL1        0.1819
     23 C         139.6620  140.5600  169.1918 C.ar    1  UNL1        0.1255
     24 N         139.8823  140.9099  170.6336 N.ar    1  UNL1       -0.2389
     25 C         140.4946  142.2292  171.0002 C.ar    1  UNL1        0.1195
     26 C         140.8866  143.1987  169.9250 C.ar    1  UNL1        0.1198
     27 N         140.6663  142.8489  168.4831 N.ar    1  UNL1       -0.2333
@<TRIPOS>BOND
     1     2     1    1
     2     2     3    1
     3     3     4    1
     4     4    22    1
     5    22    23   ar
     6    23    24   ar
     7    24    25   ar
     8    25    26   ar
     9    26    27   ar
    10     4     5    2
    11     5     6    1
    12     6     8    1
    13     8     9   ar
    14     9    10   ar
    15    10    11   ar
    16    11    12    1
    17    11    13   ar
    18    13    14   ar
    19     6    15    1
    20    15    16   ar
    21    16    17   ar
    22    17    18   ar
    23    18    19    1
    24    18    20   ar
    25    20    21   ar
    26     6     2    1
    27    14     8   ar
    28    21    15   ar
    29    27    22   ar
    30     3     7    1
@<TRIPOS>MOLECULE
*****
 27 30 0 0 0
SMALL
GASTEIGER

@<TRIPOS>ATOM
      1 C         143.0036  142.4778  167.7332 C.3     1  UNL1        0.0559
      2 C         142.6923  142.0728  166.3229 C.3     1  UNL1        0.2097
      3 N         143.2897  142.6679  165.0824 N.pl3   1  UNL1       -0.2169
      4 C         142.6955  141.9645  163.8982 C.2     1  UNL1        0.3355
      5 N         141.7308  140.9347  164.4069 N.2     1  UNL1       -0.0600
      6 C         141.7288  141.0016  165.9054 C.3     1  UNL1        0.2515
      7 H         143.9551  143.3928  165.0509 H       1  UNL1        0.2923
      8 C         141.5160  140.8375  167.3812 C.ar    1  UNL1        0.0297
      9 C         140.5642  141.7415  168.1068 C.ar    1  UNL1        0.0025
     10 C         140.3514  141.5774  169.5826 C.ar    1  UNL1        0.0295
     11 C         141.0905  140.5092  170.3326 C.ar    1  UNL1        0.1401
     12 F         140.8778  140.3451  171.8084 F       1  UNL1       -0.2042
     13 C         142.0425  139.6051  169.6070 C.ar    1  UNL1        0.0295
     14 C         142.2552  139.7692  168.1312 C.ar    1  UNL1        0.0025
     15 C         140.7208  139.8961  165.7965 C.ar    1  UNL1        0.0488
     16 C         139.3236  140.1026  166.3018 C.ar    1  UNL1        0.0057
     17 C         138.3156  138.9971  166.1929 C.ar    1  UNL1        0.0495
     18 C         138.7048  137.6852  165.5787 C.ar    1  UNL1        0.2223
     19 F         137.6967  136.5797  165.4698 F       1  UNL1       -0.1832
     20 N         140.1019  137.4787  165.0734 N.ar    1  UNL1       -0.2166
     21 C         141.1100  138.5842  165.1823 C.ar    1  UNL1        0.1014
     22 C         143.0107  142.2422  162.4582 C.ar    1  UNL1        0.1819
     23 C         142.6224  143.5549  161.8451 C.ar    1  UNL1        0.1255
     24 N         142.9376  143.8326  160.4052 N.ar    1  UNL1       -0.2389
     25 C         143.6411  142.7975  159.5783 C.ar    1  UNL1        0.1195
     26 C         144.0294  141.4848  160.1914 C.ar    1  UNL1        0.1198
     27 N         143.7142  141.2071  161.6314 N.ar    1  UNL1       -0.2333
@<TRIPOS>BOND
     1     2     1    1
     2     2     3    1
     3     3     4    1
     4     4    22    1
     5    22    23   ar
     6    23    24   ar
     7    24    25   ar
     8    25    26   ar
     9    26    27   ar
    10     4     5    2
    11     5     6    1
    12     6     8    1
    13     8     9   ar
    14     9    10   ar
    15    10    11   ar
    16    11    12    1
    17    11    13   ar
    18    13    14   ar
    19     6    15    1
    20    15    16   ar
    21    16    17   ar
    22    17    18   ar
    23    18    19    1
    24    18    20   ar
    25    20    21   ar
    26     6     2    1
    27    14     8   ar
    28    21    15   ar
    29    27    22   ar
    30     3     7    1
