@<TRIPOS>MOLECULE
*****
 39 42 0 0 0
SMALL
GASTEIGER

@<TRIPOS>ATOM
      1 C         141.8319  144.6823  161.2384 C.3     1  UNL1        0.2032
      2 C         141.6336  145.0185  162.6867 C.3     1  UNL1        0.0680
      3 C         142.4718  144.3472  163.7341 C.3     1  UNL1        0.0973
      4 N         143.5081  143.3397  163.3331 N.am    1  UNL1       -0.2762
      5 C         144.3462  142.6684  164.3804 C.2     1  UNL1        0.2301
      6 O         145.3827  141.6609  163.9794 O.2     1  UNL1       -0.2745
      7 C         143.7065  143.0035  161.8847 C.3     1  UNL1        0.1323
      8 C         142.8684  143.6748  160.8374 C.3     1  UNL1        0.2202
      9 F         143.0667  143.3386  159.3891 F       1  UNL1       -0.2316
     10 O         140.9938  145.3536  160.1910 O.3     1  UNL1       -0.4609
     11 C         138.4319  142.8844  157.4361 C.ar    1  UNL1        0.0387
     12 C         138.4126  142.6233  158.9131 C.ar    1  UNL1        0.1036
     13 N         139.2666  143.4464  159.8314 N.ar    1  UNL1       -0.2100
     14 C         140.1398  144.5305  159.2727 C.ar    1  UNL1        0.2292
     15 C         140.1591  144.7916  157.7957 C.ar    1  UNL1        0.1062
     16 C         139.3051  143.9686  156.8775 C.ar    1  UNL1        0.0123
     17 C         135.4093  141.4105  153.3652 C.3     1  UNL1        0.1321
     18 N         136.1886  141.3839  154.6466 N.ar    1  UNL1       -0.3059
     19 C         136.3390  140.2056  155.5627 C.ar    1  UNL1        0.1786
     20 N         137.1976  140.6244  156.7192 N.ar    1  UNL1       -0.2238
     21 C         137.5779  142.0614  156.5178 C.ar    1  UNL1        0.1017
     22 C         136.9543  142.5307  155.2369 C.ar    1  UNL1        0.0965
     23 C         141.0323  145.8758  157.2371 C.2     1  UNL1        0.2473
     24 N         142.3931  146.1177  157.8198 N.am    1  UNL1       -0.3252
     25 O         140.5448  146.7179  156.0956 O.2     1  UNL1       -0.2702
     26 H         142.7131  145.5650  158.5690 H       1  UNL1        0.1453
     27 H         142.9662  146.8293  157.4532 H       1  UNL1        0.1453
     28 C         144.1479  143.0046  165.8287 C.3     1  UNL1        0.1116
     29 C         143.2663  142.1441  166.6845 C.ar    1  UNL1       -0.0129
     30 C         143.2008  142.3761  168.1650 C.ar    1  UNL1       -0.0007
     31 C         142.3193  141.5156  169.0208 C.ar    1  UNL1        0.0369
     32 C         141.5031  140.4231  168.3960 C.ar    1  UNL1        0.1468
     33 C         141.5686  140.1911  166.9155 C.ar    1  UNL1        0.0369
     34 C         142.4502  141.0515  166.0598 C.ar    1  UNL1       -0.0007
     35 O         140.6215  139.5626  169.2518 O.3     1  UNL1       -0.4045
     36 C         139.3256  140.1054  169.7772 C.3     1  UNL1        0.5753
     37 F         138.0298  140.6483  170.3027 F       1  UNL1       -0.1328
     38 F         138.6496  139.7378  168.4897 F       1  UNL1       -0.1328
     39 F         140.0017  140.4731  171.0648 F       1  UNL1       -0.1328
@<TRIPOS>BOND
     1    17    18    1
     2    18    19   ar
     3    19    20   ar
     4    20    21   ar
     5    21    11    1
     6    11    12   ar
     7    12    13   ar
     8    13    14   ar
     9    14    10    1
    10     1    10    1
    11     1     2    1
    12     2     3    1
    13     3     4    1
    14     4     5   am
    15     5     6    2
    16     5    28    1
    17    28    29    1
    18    29    30   ar
    19    30    31   ar
    20    31    32   ar
    21    32    35    1
    22    35    36    1
    23    36    37    1
    24    36    38    1
    25    36    39    1
    26    32    33   ar
    27    33    34   ar
    28     4     7    1
    29     7     8    1
    30     8     9    1
    31    14    15   ar
    32    15    23    1
    33    23    24   am
    34    23    25    2
    35    15    16   ar
    36    21    22   ar
    37    22    18   ar
    38    16    11   ar
    39     8     1    1
    40    34    29   ar
    41    24    26    1
    42    24    27    1
@<TRIPOS>MOLECULE
*****
 39 42 0 0 0
SMALL
GASTEIGER

@<TRIPOS>ATOM
      1 C         142.7450  139.5819  158.4147 C.3     1  UNL1        0.2032
      2 C         142.8225  138.6181  159.5615 C.3     1  UNL1        0.0680
      3 C         143.4645  139.0368  160.8510 C.3     1  UNL1        0.0973
      4 N         144.0290  140.4192  160.9935 N.am    1  UNL1       -0.2762
      5 C         144.6709  140.8379  162.2829 C.2     1  UNL1        0.2301
      6 O         145.2354  142.2203  162.4256 O.2     1  UNL1       -0.2745
      7 C         143.9514  141.3830  159.8467 C.3     1  UNL1        0.1323
      8 C         143.3094  140.9644  158.5573 C.3     1  UNL1        0.2202
      9 F         143.2318  141.9281  157.4105 F       1  UNL1       -0.2316
     10 O         142.1030  139.1633  157.1253 O.3     1  UNL1       -0.4609
     11 C         142.8162  135.0302  155.4947 C.ar    1  UNL1        0.0387
     12 C         143.9736  135.9570  155.7214 C.ar    1  UNL1        0.1036
     13 N         143.7358  137.3347  156.2649 N.ar    1  UNL1       -0.2100
     14 C         142.3407  137.7855  156.5818 C.ar    1  UNL1        0.2292
     15 C         141.1833  136.8587  156.3550 C.ar    1  UNL1        0.1062
     16 C         141.4211  135.4810  155.8115 C.ar    1  UNL1        0.0123
     17 C         144.5365  130.0654  154.9724 C.3     1  UNL1        0.1321
     18 N         143.8447  131.3704  154.7110 N.ar    1  UNL1       -0.3059
     19 C         142.9948  131.6944  153.5182 C.ar    1  UNL1        0.1786
     20 N         142.5061  133.1048  153.6666 N.ar    1  UNL1       -0.2238
     21 C         143.0540  133.6525  154.9511 C.ar    1  UNL1        0.1017
     22 C         143.8812  132.5806  155.5966 C.ar    1  UNL1        0.0965
     23 C         139.7882  137.3095  156.6718 C.2     1  UNL1        0.2473
     24 N         139.5328  138.1700  157.8736 N.am    1  UNL1       -0.3252
     25 O         138.6485  136.8999  155.7868 O.2     1  UNL1       -0.2702
     26 H         140.2808  138.4388  158.4545 H       1  UNL1        0.1453
     27 H         138.6171  138.4658  158.0816 H       1  UNL1        0.1453
     28 C         144.7485  139.8741  163.4297 C.3     1  UNL1        0.1116
     29 C         143.9560  140.1281  164.6778 C.ar    1  UNL1       -0.0129
     30 C         143.3427  138.9801  165.4234 C.ar    1  UNL1       -0.0007
     31 C         142.5502  139.2340  166.6713 C.ar    1  UNL1        0.0369
     32 C         142.3711  140.6359  167.1737 C.ar    1  UNL1        0.1468
     33 C         142.9844  141.7840  166.4281 C.ar    1  UNL1        0.0369
     34 C         143.7768  141.5300  165.1801 C.ar    1  UNL1       -0.0007
     35 O         141.5786  140.8899  168.4217 O.3     1  UNL1       -0.4045
     36 C         140.1927  140.3320  168.5567 C.3     1  UNL1        0.5753
     37 F         138.8069  139.7740  168.6917 F       1  UNL1       -0.1328
     38 F         140.6530  139.4629  169.6893 F       1  UNL1       -0.1328
     39 F         139.7325  141.2011  167.4241 F       1  UNL1       -0.1328
@<TRIPOS>BOND
     1    17    18    1
     2    18    19   ar
     3    19    20   ar
     4    20    21   ar
     5    21    11    1
     6    11    12   ar
     7    12    13   ar
     8    13    14   ar
     9    14    10    1
    10     1    10    1
    11     1     2    1
    12     2     3    1
    13     3     4    1
    14     4     5   am
    15     5     6    2
    16     5    28    1
    17    28    29    1
    18    29    30   ar
    19    30    31   ar
    20    31    32   ar
    21    32    35    1
    22    35    36    1
    23    36    37    1
    24    36    38    1
    25    36    39    1
    26    32    33   ar
    27    33    34   ar
    28     4     7    1
    29     7     8    1
    30     8     9    1
    31    14    15   ar
    32    15    23    1
    33    23    24   am
    34    23    25    2
    35    15    16   ar
    36    21    22   ar
    37    22    18   ar
    38    16    11   ar
    39     8     1    1
    40    34    29   ar
    41    24    26    1
    42    24    27    1
@<TRIPOS>MOLECULE
*****
 39 42 0 0 0
SMALL
GASTEIGER

@<TRIPOS>ATOM
      1 C         142.2181  138.6764  159.8518 C.3     1  UNL1        0.2032
      2 C         141.5092  138.0093  160.9931 C.3     1  UNL1        0.0680
      3 C         142.0473  138.1368  162.3875 C.3     1  UNL1        0.0973
      4 N         143.2942  138.9313  162.6406 N.am    1  UNL1       -0.2762
      5 C         143.8322  139.0587  164.0349 C.2     1  UNL1        0.2301
      6 O         145.0791  139.8532  164.2880 O.2     1  UNL1       -0.2745
      7 C         144.0030  139.5984  161.4993 C.3     1  UNL1        0.1323
      8 C         143.4650  139.4709  160.1049 C.3     1  UNL1        0.2202
      9 F         144.1738  140.1380  158.9636 F       1  UNL1       -0.2316
     10 O         141.6800  138.5490  158.4575 O.3     1  UNL1       -0.4609
     11 C         142.5691  134.8652  156.0307 C.ar    1  UNL1        0.0387
     12 C         143.4888  135.2696  157.1445 C.ar    1  UNL1        0.1036
     13 N         143.1924  136.4975  157.9534 N.ar    1  UNL1       -0.2100
     14 C         141.9764  137.3210  157.6485 C.ar    1  UNL1        0.2292
     15 C         141.0567  136.9167  156.5347 C.ar    1  UNL1        0.1062
     16 C         141.3530  135.6888  155.7258 C.ar    1  UNL1        0.0123
     17 C         144.4465  130.1557  154.5553 C.3     1  UNL1        0.1321
     18 N         143.7283  131.4725  154.5436 N.ar    1  UNL1       -0.3059
     19 C         142.9143  132.0228  153.4101 C.ar    1  UNL1        0.1786
     20 N         142.3810  133.3607  153.8293 N.ar    1  UNL1       -0.2238
     21 C         142.8654  133.6372  155.2217 C.ar    1  UNL1        0.1017
     22 C         143.6981  132.4703  155.6632 C.ar    1  UNL1        0.0965
     23 C         139.8406  137.7402  156.2298 C.2     1  UNL1        0.2473
     24 N         139.9273  139.2377  156.2390 N.am    1  UNL1       -0.3252
     25 O         138.5379  137.0664  155.9157 O.2     1  UNL1       -0.2702
     26 H         140.7823  139.6800  156.4452 H       1  UNL1        0.1453
     27 H         139.1291  139.7782  156.0389 H       1  UNL1        0.1453
     28 C         143.1234  138.3916  165.1762 C.3     1  UNL1        0.1116
     29 C         142.3349  139.2134  166.1525 C.ar    1  UNL1       -0.0129
     30 C         142.7299  139.2427  167.5992 C.ar    1  UNL1       -0.0007
     31 C         141.9415  140.0644  168.5755 C.ar    1  UNL1        0.0369
     32 C         140.7580  140.8568  168.1050 C.ar    1  UNL1        0.1468
     33 C         140.3629  140.8274  166.6583 C.ar    1  UNL1        0.0369
     34 C         141.1513  140.0057  165.6820 C.ar    1  UNL1       -0.0007
     35 O         139.9695  141.6785  169.0813 O.3     1  UNL1       -0.4045
     36 C         140.4952  143.0061  169.5408 C.3     1  UNL1        0.5753
     37 F         141.0209  144.3338  170.0002 F       1  UNL1       -0.1328
     38 F         140.9380  142.3840  170.8318 F       1  UNL1       -0.1328
     39 F         140.0523  143.6283  168.2497 F       1  UNL1       -0.1328
@<TRIPOS>BOND
     1    17    18    1
     2    18    19   ar
     3    19    20   ar
     4    20    21   ar
     5    21    11    1
     6    11    12   ar
     7    12    13   ar
     8    13    14   ar
     9    14    10    1
    10     1    10    1
    11     1     2    1
    12     2     3    1
    13     3     4    1
    14     4     5   am
    15     5     6    2
    16     5    28    1
    17    28    29    1
    18    29    30   ar
    19    30    31   ar
    20    31    32   ar
    21    32    35    1
    22    35    36    1
    23    36    37    1
    24    36    38    1
    25    36    39    1
    26    32    33   ar
    27    33    34   ar
    28     4     7    1
    29     7     8    1
    30     8     9    1
    31    14    15   ar
    32    15    23    1
    33    23    24   am
    34    23    25    2
    35    15    16   ar
    36    21    22   ar
    37    22    18   ar
    38    16    11   ar
    39     8     1    1
    40    34    29   ar
    41    24    26    1
    42    24    27    1
@<TRIPOS>MOLECULE
*****
 39 42 0 0 0
SMALL
GASTEIGER

@<TRIPOS>ATOM
      1 C         140.2602  139.7951  158.8247 C.3     1  UNL1        0.2032
      2 C         140.5132  138.9037  160.0043 C.3     1  UNL1        0.0680
      3 C         139.7672  139.1267  161.2865 C.3     1  UNL1        0.0973
      4 N         138.7683  140.2409  161.3890 N.am    1  UNL1       -0.2762
      5 C         138.0224  140.4638  162.6711 C.2     1  UNL1        0.2301
      6 O         137.0234  141.5781  162.7737 O.2     1  UNL1       -0.2745
      7 C         138.5153  141.1323  160.2094 C.3     1  UNL1        0.1323
      8 C         139.2613  140.9094  158.9273 C.3     1  UNL1        0.2202
      9 F         139.0083  141.8008  157.7477 F       1  UNL1       -0.2316
     10 O         141.0061  139.5722  157.5426 O.3     1  UNL1       -0.4609
     11 C         142.0432  135.3915  156.2404 C.ar    1  UNL1        0.0387
     12 C         142.9423  136.1259  157.1902 C.ar    1  UNL1        0.1036
     13 N         142.5966  137.5195  157.6243 N.ar    1  UNL1       -0.2100
     14 C         141.3518  138.1786  157.1085 C.ar    1  UNL1        0.2292
     15 C         140.4527  137.4442  156.1587 C.ar    1  UNL1        0.1062
     16 C         140.7984  136.0507  155.7246 C.ar    1  UNL1        0.0123
     17 C         143.3314  131.2391  153.2438 C.3     1  UNL1        0.1321
     18 N         142.9810  132.0893  154.4289 N.ar    1  UNL1       -0.3059
     19 C         142.8606  131.6174  155.8477 C.ar    1  UNL1        0.1786
     20 N         142.4946  132.7970  156.6989 N.ar    1  UNL1       -0.2238
     21 C         142.3889  133.9979  155.8063 C.ar    1  UNL1        0.1017
     22 C         142.6895  133.5604  154.4033 C.ar    1  UNL1        0.0965
     23 C         139.2079  138.1034  155.6429 C.2     1  UNL1        0.2473
     24 N         139.2187  139.5642  155.3026 N.am    1  UNL1       -0.3252
     25 O         137.9524  137.3017  155.4674 O.2     1  UNL1       -0.2702
     26 H         140.0428  140.0904  155.4177 H       1  UNL1        0.1453
     27 H         138.4017  139.9968  154.9641 H       1  UNL1        0.1453
     28 C         138.2754  139.5724  163.8507 C.3     1  UNL1        0.1116
     29 C         138.9263  140.1263  165.0834 C.ar    1  UNL1       -0.0129
     30 C         139.7006  141.4090  165.0108 C.ar    1  UNL1       -0.0007
     31 C         140.3515  141.9629  166.2434 C.ar    1  UNL1        0.0369
     32 C         140.2281  141.2342  167.5487 C.ar    1  UNL1        0.1468
     33 C         139.4538  139.9516  167.6213 C.ar    1  UNL1        0.0369
     34 C         138.8029  139.3977  166.3887 C.ar    1  UNL1       -0.0007
     35 O         140.8791  141.7882  168.7814 O.3     1  UNL1       -0.4045
     36 C         140.0468  142.4676  169.8282 C.3     1  UNL1        0.5753
     37 F         139.2146  143.1471  170.8749 F       1  UNL1       -0.1328
     38 F         139.9966  141.1922  170.6161 F       1  UNL1       -0.1328
     39 F         140.0970  143.7430  169.0402 F       1  UNL1       -0.1328
@<TRIPOS>BOND
     1    17    18    1
     2    18    19   ar
     3    19    20   ar
     4    20    21   ar
     5    21    11    1
     6    11    12   ar
     7    12    13   ar
     8    13    14   ar
     9    14    10    1
    10     1    10    1
    11     1     2    1
    12     2     3    1
    13     3     4    1
    14     4     5   am
    15     5     6    2
    16     5    28    1
    17    28    29    1
    18    29    30   ar
    19    30    31   ar
    20    31    32   ar
    21    32    35    1
    22    35    36    1
    23    36    37    1
    24    36    38    1
    25    36    39    1
    26    32    33   ar
    27    33    34   ar
    28     4     7    1
    29     7     8    1
    30     8     9    1
    31    14    15   ar
    32    15    23    1
    33    23    24   am
    34    23    25    2
    35    15    16   ar
    36    21    22   ar
    37    22    18   ar
    38    16    11   ar
    39     8     1    1
    40    34    29   ar
    41    24    26    1
    42    24    27    1
@<TRIPOS>MOLECULE
*****
 39 42 0 0 0
SMALL
GASTEIGER

@<TRIPOS>ATOM
      1 C         143.3661  139.1836  160.1976 C.3     1  UNL1        0.2032
      2 C         144.1995  139.5902  161.3766 C.3     1  UNL1        0.0680
      3 C         143.7922  139.1789  162.7605 C.3     1  UNL1        0.0973
      4 N         142.5516  138.3610  162.9653 N.am    1  UNL1       -0.2762
      5 C         142.1445  137.9497  164.3491 C.2     1  UNL1        0.2301
      6 O         140.9038  137.1318  164.5540 O.2     1  UNL1       -0.2745
      7 C         141.7183  137.9543  161.7863 C.3     1  UNL1        0.1323
      8 C         142.1254  138.3656  160.4025 C.3     1  UNL1        0.2202
      9 F         141.2920  137.9590  159.2234 F       1  UNL1       -0.2316
     10 O         143.7732  139.5948  158.8138 O.3     1  UNL1       -0.4609
     11 C         141.9139  143.2214  156.9057 C.ar    1  UNL1        0.0387
     12 C         141.1181  142.3880  157.8660 C.ar    1  UNL1        0.1036
     13 N         141.7379  141.1792  158.5020 N.ar    1  UNL1       -0.2100
     14 C         143.1535  140.8037  158.1777 C.ar    1  UNL1        0.2292
     15 C         143.9493  141.6371  157.2175 C.ar    1  UNL1        0.1062
     16 C         143.3295  142.8459  156.5815 C.ar    1  UNL1        0.0123
     17 C         139.0169  147.5713  156.1528 C.3     1  UNL1        0.1321
     18 N         139.9626  146.4297  155.9236 N.ar    1  UNL1       -0.3059
     19 C         140.7185  146.1514  154.6581 C.ar    1  UNL1        0.1786
     20 N         141.5415  144.9158  154.8721 N.ar    1  UNL1       -0.2238
     21 C         141.2942  144.4303  156.2697 C.ar    1  UNL1        0.1017
     22 C         140.3184  145.3660  156.9195 C.ar    1  UNL1        0.0965
     23 C         145.3649  141.2616  156.8932 C.2     1  UNL1        0.2473
     24 N         145.6758  139.8917  156.3674 N.am    1  UNL1       -0.3252
     25 O         146.4695  142.2561  157.0947 O.2     1  UNL1       -0.2702
     26 H         144.9508  139.2389  156.2352 H       1  UNL1        0.1453
     27 H         146.6049  139.6452  156.1546 H       1  UNL1        0.1453
     28 C         142.9779  138.3563  165.5282 C.3     1  UNL1        0.1116
     29 C         142.3619  139.1447  166.6458 C.ar    1  UNL1       -0.0129
     30 C         141.1597  140.0029  166.3845 C.ar    1  UNL1       -0.0007
     31 C         140.5438  140.7913  167.5021 C.ar    1  UNL1        0.0369
     32 C         141.1299  140.7215  168.8810 C.ar    1  UNL1        0.1468
     33 C         142.3321  139.8632  169.1423 C.ar    1  UNL1        0.0369
     34 C         142.9481  139.0749  168.0248 C.ar    1  UNL1       -0.0007
     35 O         140.5140  141.5098  169.9986 O.3     1  UNL1       -0.4045
     36 C         140.4480  143.0060  169.9135 C.3     1  UNL1        0.5753
     37 F         140.3821  144.5021  169.8283 F       1  UNL1       -0.1328
     38 F         139.1585  142.9927  170.6797 F       1  UNL1       -0.1328
     39 F         141.7375  143.0192  169.1473 F       1  UNL1       -0.1328
@<TRIPOS>BOND
     1    17    18    1
     2    18    19   ar
     3    19    20   ar
     4    20    21   ar
     5    21    11    1
     6    11    12   ar
     7    12    13   ar
     8    13    14   ar
     9    14    10    1
    10     1    10    1
    11     1     2    1
    12     2     3    1
    13     3     4    1
    14     4     5   am
    15     5     6    2
    16     5    28    1
    17    28    29    1
    18    29    30   ar
    19    30    31   ar
    20    31    32   ar
    21    32    35    1
    22    35    36    1
    23    36    37    1
    24    36    38    1
    25    36    39    1
    26    32    33   ar
    27    33    34   ar
    28     4     7    1
    29     7     8    1
    30     8     9    1
    31    14    15   ar
    32    15    23    1
    33    23    24   am
    34    23    25    2
    35    15    16   ar
    36    21    22   ar
    37    22    18   ar
    38    16    11   ar
    39     8     1    1
    40    34    29   ar
    41    24    26    1
    42    24    27    1
@<TRIPOS>MOLECULE
*****
 39 42 0 0 0
SMALL
GASTEIGER

@<TRIPOS>ATOM
      1 C         142.6978  143.8387  158.3805 C.3     1  UNL1        0.2032
      2 C         142.9608  143.3981  159.7900 C.3     1  UNL1        0.0680
      3 C         142.1455  143.9611  160.9162 C.3     1  UNL1        0.0973
      4 N         141.0673  144.9647  160.6330 N.am    1  UNL1       -0.2762
      5 C         140.2521  145.5277  161.7592 C.2     1  UNL1        0.2301
      6 O         139.1739  146.5313  161.4760 O.2     1  UNL1       -0.2745
      7 C         140.8043  145.4053  159.2235 C.3     1  UNL1        0.1323
      8 C         141.6195  144.8423  158.0972 C.3     1  UNL1        0.2202
      9 F         141.3565  145.2829  156.6877 F       1  UNL1       -0.2316
     10 O         143.5130  143.2757  157.2542 O.3     1  UNL1       -0.4609
     11 C         143.2658  138.8916  156.2702 C.ar    1  UNL1        0.0387
     12 C         142.0313  139.6393  156.6787 C.ar    1  UNL1        0.1036
     13 N         142.1137  141.1006  157.0067 N.ar    1  UNL1       -0.2100
     14 C         143.4306  141.8143  156.9262 C.ar    1  UNL1        0.2292
     15 C         144.6651  141.0666  156.5177 C.ar    1  UNL1        0.1062
     16 C         144.5827  139.6052  156.1897 C.ar    1  UNL1        0.0123
     17 C         141.3609  134.0838  155.2032 C.3     1  UNL1        0.1321
     18 N         142.3078  135.2203  155.4518 N.ar    1  UNL1       -0.3059
     19 C         143.8056  135.1423  155.4231 C.ar    1  UNL1        0.1786
     20 N         144.3467  136.5081  155.7262 N.ar    1  UNL1       -0.2238
     21 C         143.1834  137.4302  155.9422 C.ar    1  UNL1        0.1017
     22 C         141.9233  136.6343  155.7726 C.ar    1  UNL1        0.0965
     23 C         145.9820  141.7802  156.4372 C.2     1  UNL1        0.2473
     24 N         146.3567  142.7836  157.4873 N.am    1  UNL1       -0.3252
     25 O         146.9242  141.4904  155.3067 O.2     1  UNL1       -0.2702
     26 H         145.7383  142.9739  158.2293 H       1  UNL1        0.1453
     27 H         147.2210  143.2520  157.4345 H       1  UNL1        0.1453
     28 C         140.5152  145.0871  163.1687 C.3     1  UNL1        0.1116
     29 C         139.8492  143.8550  163.7060 C.ar    1  UNL1       -0.0129
     30 C         140.6475  142.8477  164.4794 C.ar    1  UNL1       -0.0007
     31 C         139.9817  141.6157  165.0167 C.ar    1  UNL1        0.0369
     32 C         138.5176  141.3909  164.7806 C.ar    1  UNL1        0.1468
     33 C         137.7193  142.3982  164.0071 C.ar    1  UNL1        0.0369
     34 C         138.3851  143.6302  163.4698 C.ar    1  UNL1       -0.0007
     35 O         137.8516  140.1588  165.3178 O.3     1  UNL1       -0.4045
     36 C         138.5943  138.8558  165.3441 C.3     1  UNL1        0.5753
     37 F         139.3369  137.5528  165.3703 F       1  UNL1       -0.1328
     38 F         138.5364  138.7927  163.8465 F       1  UNL1       -0.1328
     39 F         138.6521  138.9190  166.8416 F       1  UNL1       -0.1328
@<TRIPOS>BOND
     1    17    18    1
     2    18    19   ar
     3    19    20   ar
     4    20    21   ar
     5    21    11    1
     6    11    12   ar
     7    12    13   ar
     8    13    14   ar
     9    14    10    1
    10     1    10    1
    11     1     2    1
    12     2     3    1
    13     3     4    1
    14     4     5   am
    15     5     6    2
    16     5    28    1
    17    28    29    1
    18    29    30   ar
    19    30    31   ar
    20    31    32   ar
    21    32    35    1
    22    35    36    1
    23    36    37    1
    24    36    38    1
    25    36    39    1
    26    32    33   ar
    27    33    34   ar
    28     4     7    1
    29     7     8    1
    30     8     9    1
    31    14    15   ar
    32    15    23    1
    33    23    24   am
    34    23    25    2
    35    15    16   ar
    36    21    22   ar
    37    22    18   ar
    38    16    11   ar
    39     8     1    1
    40    34    29   ar
    41    24    26    1
    42    24    27    1
@<TRIPOS>MOLECULE
*****
 39 42 0 0 0
SMALL
GASTEIGER

@<TRIPOS>ATOM
      1 C         139.9184  140.8511  158.7817 C.3     1  UNL1        0.2032
      2 C         139.7459  139.7653  159.8021 C.3     1  UNL1        0.0680
      3 C         139.0795  140.0659  161.1119 C.3     1  UNL1        0.0973
      4 N         138.5857  141.4524  161.4014 N.am    1  UNL1       -0.2762
      5 C         137.9194  141.7530  162.7111 C.2     1  UNL1        0.2301
      6 O         137.4255  143.1396  163.0006 O.2     1  UNL1       -0.2745
      7 C         138.7583  142.5383  160.3810 C.3     1  UNL1        0.1323
      8 C         139.4246  142.2377  159.0712 C.3     1  UNL1        0.2202
      9 F         139.5971  143.3235  158.0508 F       1  UNL1       -0.2316
     10 O         140.5848  140.5505  157.4719 O.3     1  UNL1       -0.4609
     11 C         141.9160  136.3552  156.5353 C.ar    1  UNL1        0.0387
     12 C         140.5400  136.8095  156.1480 C.ar    1  UNL1        0.1036
     13 N         140.0962  138.2079  156.4602 N.ar    1  UNL1       -0.2100
     14 C         141.0286  139.1520  157.1597 C.ar    1  UNL1        0.2292
     15 C         142.4046  138.6978  157.5471 C.ar    1  UNL1        0.1062
     16 C         142.8483  137.2993  157.2349 C.ar    1  UNL1        0.0123
     17 C         144.8284  131.9616  156.2274 C.3     1  UNL1        0.1321
     18 N         143.6985  132.9372  156.0816 N.ar    1  UNL1       -0.3059
     19 C         142.3868  132.6723  155.4038 C.ar    1  UNL1        0.1786
     20 N         141.5595  133.9205  155.4912 N.ar    1  UNL1       -0.2238
     21 C         142.3598  134.9567  156.2231 C.ar    1  UNL1        0.1017
     22 C         143.6817  134.3491  156.5880 C.ar    1  UNL1        0.0965
     23 C         143.3369  139.6419  158.2467 C.2     1  UNL1        0.2473
     24 N         143.5844  141.0086  157.6804 N.am    1  UNL1       -0.3252
     25 O         144.0217  139.2193  159.5125 O.2     1  UNL1       -0.2702
     26 H         143.1350  141.2860  156.8496 H       1  UNL1        0.1453
     27 H         144.1963  141.6283  158.1396 H       1  UNL1        0.1453
     28 C         137.7469  140.6672  163.7315 C.3     1  UNL1        0.1116
     29 C         138.5271  140.7104  165.0119 C.ar    1  UNL1       -0.0129
     30 C         138.3898  139.6005  166.0116 C.ar    1  UNL1       -0.0007
     31 C         139.1700  139.6437  167.2920 C.ar    1  UNL1        0.0369
     32 C         140.0874  140.7967  167.5727 C.ar    1  UNL1        0.1468
     33 C         140.2247  141.9065  166.5730 C.ar    1  UNL1        0.0369
     34 C         139.4445  141.8634  165.2926 C.ar    1  UNL1       -0.0007
     35 O         140.8677  140.8399  168.8531 O.3     1  UNL1       -0.4045
     36 C         141.7207  139.6721  169.2513 C.3     1  UNL1        0.5753
     37 F         142.5738  138.5043  169.6495 F       1  UNL1       -0.1328
     38 F         142.6530  139.9650  168.1133 F       1  UNL1       -0.1328
     39 F         140.7885  139.3791  170.3894 F       1  UNL1       -0.1328
@<TRIPOS>BOND
     1    17    18    1
     2    18    19   ar
     3    19    20   ar
     4    20    21   ar
     5    21    11    1
     6    11    12   ar
     7    12    13   ar
     8    13    14   ar
     9    14    10    1
    10     1    10    1
    11     1     2    1
    12     2     3    1
    13     3     4    1
    14     4     5   am
    15     5     6    2
    16     5    28    1
    17    28    29    1
    18    29    30   ar
    19    30    31   ar
    20    31    32   ar
    21    32    35    1
    22    35    36    1
    23    36    37    1
    24    36    38    1
    25    36    39    1
    26    32    33   ar
    27    33    34   ar
    28     4     7    1
    29     7     8    1
    30     8     9    1
    31    14    15   ar
    32    15    23    1
    33    23    24   am
    34    23    25    2
    35    15    16   ar
    36    21    22   ar
    37    22    18   ar
    38    16    11   ar
    39     8     1    1
    40    34    29   ar
    41    24    26    1
    42    24    27    1
@<TRIPOS>MOLECULE
*****
 39 42 0 0 0
SMALL
GASTEIGER

@<TRIPOS>ATOM
      1 C         142.8279  139.9644  158.9272 C.3     1  UNL1        0.2032
      2 C         142.5098  139.0464  160.0700 C.3     1  UNL1        0.0680
      3 C         143.1772  139.2440  161.3988 C.3     1  UNL1        0.0973
      4 N         144.1627  140.3594  161.5847 N.am    1  UNL1       -0.2762
      5 C         144.8300  140.5569  162.9134 C.2     1  UNL1        0.2301
      6 O         145.8155  141.6724  163.0994 O.2     1  UNL1       -0.2745
      7 C         144.4808  141.2774  160.4418 C.3     1  UNL1        0.1323
      8 C         143.8134  141.0799  159.1131 C.3     1  UNL1        0.2202
      9 F         144.1315  141.9979  157.9702 F       1  UNL1       -0.2316
     10 O         142.1605  139.7669  157.5984 O.3     1  UNL1       -0.4609
     11 C         142.1249  135.6959  155.6814 C.ar    1  UNL1        0.0387
     12 C         143.4298  136.3628  156.0013 C.ar    1  UNL1        0.1036
     13 N         143.4416  137.7198  156.6403 N.ar    1  UNL1       -0.2100
     14 C         142.1486  138.4099  156.9594 C.ar    1  UNL1        0.2292
     15 C         140.8437  137.7429  156.6395 C.ar    1  UNL1        0.1062
     16 C         140.8318  136.3859  156.0005 C.ar    1  UNL1        0.0123
     17 C         141.7824  130.4718  154.9936 C.3     1  UNL1        0.1321
     18 N         141.9555  131.9376  154.7262 N.ar    1  UNL1       -0.3059
     19 C         142.2338  132.5635  153.3917 C.ar    1  UNL1        0.1786
     20 N         142.3311  134.0476  153.5872 N.ar    1  UNL1       -0.2238
     21 C         142.1130  134.3388  155.0424 C.ar    1  UNL1        0.1017
     22 C         141.8809  133.0348  155.7464 C.ar    1  UNL1        0.0965
     23 C         139.5506  138.4330  156.9587 C.2     1  UNL1        0.2473
     24 N         139.2888  138.9292  158.3497 N.am    1  UNL1       -0.3252
     25 O         138.5195  138.6268  155.8867 O.2     1  UNL1       -0.2702
     26 H         139.9655  138.8020  159.0533 H       1  UNL1        0.1453
     27 H         138.4401  139.3821  158.5592 H       1  UNL1        0.1453
     28 C         144.5119  139.6389  164.0563 C.3     1  UNL1        0.1116
     29 C         143.8301  140.1739  165.2806 C.ar    1  UNL1       -0.0129
     30 C         143.6972  141.6549  165.4783 C.ar    1  UNL1       -0.0007
     31 C         143.0154  142.1900  166.7025 C.ar    1  UNL1        0.0369
     32 C         142.4665  141.2440  167.7291 C.ar    1  UNL1        0.1468
     33 C         142.5995  139.7631  167.5315 C.ar    1  UNL1        0.0369
     34 C         143.2812  139.2280  166.3072 C.ar    1  UNL1       -0.0007
     35 O         141.7847  141.7791  168.9535 O.3     1  UNL1       -0.4045
     36 C         142.5189  142.7065  169.8759 C.3     1  UNL1        0.5753
     37 F         143.2530  143.6340  170.7983 F       1  UNL1       -0.1328
     38 F         141.4084  143.7074  169.7535 F       1  UNL1       -0.1328
     39 F         143.6294  141.7056  169.9984 F       1  UNL1       -0.1328
@<TRIPOS>BOND
     1    17    18    1
     2    18    19   ar
     3    19    20   ar
     4    20    21   ar
     5    21    11    1
     6    11    12   ar
     7    12    13   ar
     8    13    14   ar
     9    14    10    1
    10     1    10    1
    11     1     2    1
    12     2     3    1
    13     3     4    1
    14     4     5   am
    15     5     6    2
    16     5    28    1
    17    28    29    1
    18    29    30   ar
    19    30    31   ar
    20    31    32   ar
    21    32    35    1
    22    35    36    1
    23    36    37    1
    24    36    38    1
    25    36    39    1
    26    32    33   ar
    27    33    34   ar
    28     4     7    1
    29     7     8    1
    30     8     9    1
    31    14    15   ar
    32    15    23    1
    33    23    24   am
    34    23    25    2
    35    15    16   ar
    36    21    22   ar
    37    22    18   ar
    38    16    11   ar
    39     8     1    1
    40    34    29   ar
    41    24    26    1
    42    24    27    1
@<TRIPOS>MOLECULE
*****
 39 42 0 0 0
SMALL
GASTEIGER

@<TRIPOS>ATOM
      1 C         142.2866  143.7657  160.1362 C.3     1  UNL1        0.2032
      2 C         143.4855  142.9190  159.8270 C.3     1  UNL1        0.0680
      3 C         143.5208  142.0989  158.5714 C.3     1  UNL1        0.0973
      4 N         142.3572  142.1256  157.6252 N.am    1  UNL1       -0.2762
      5 C         142.3926  141.3055  156.3698 C.2     1  UNL1        0.2301
      6 O         141.2290  141.3322  155.4235 O.2     1  UNL1       -0.2745
      7 C         141.1583  142.9724  157.9345 C.3     1  UNL1        0.1323
      8 C         141.1230  143.7924  159.1899 C.3     1  UNL1        0.2202
      9 F         139.9241  144.6392  159.4992 F       1  UNL1       -0.2316
     10 O         142.2513  144.5858  161.3917 O.3     1  UNL1       -0.4609
     11 C         141.0863  142.6745  165.2955 C.ar    1  UNL1        0.0387
     12 C         142.4090  142.3501  164.6669 C.ar    1  UNL1        0.1036
     13 N         142.7973  142.9871  163.3656 N.ar    1  UNL1       -0.2100
     14 C         141.8629  143.9487  162.6930 C.ar    1  UNL1        0.2292
     15 C         140.5403  144.2732  163.3217 C.ar    1  UNL1        0.1062
     16 C         140.1520  143.6361  164.6229 C.ar    1  UNL1        0.0123
     17 C         139.9067  141.9886  170.3964 C.3     1  UNL1        0.1321
     18 N         140.1558  141.7222  168.9414 N.ar    1  UNL1       -0.3059
     19 C         140.0449  140.3919  168.2571 C.ar    1  UNL1        0.1786
     20 N         140.3800  140.5868  166.8081 N.ar    1  UNL1       -0.2238
     21 C         140.6980  142.0374  166.5968 C.ar    1  UNL1        0.1017
     22 C         140.5594  142.7391  167.9153 C.ar    1  UNL1        0.0965
     23 C         139.6059  145.2347  162.6491 C.2     1  UNL1        0.2473
     24 N         140.1133  146.5623  162.1694 N.am    1  UNL1       -0.3252
     25 O         138.1641  144.8687  162.4561 O.2     1  UNL1       -0.2702
     26 H         141.0596  146.8025  162.2961 H       1  UNL1        0.1453
     27 H         139.5001  147.1933  161.7280 H       1  UNL1        0.1453
     28 C         143.5915  140.4588  156.0605 C.3     1  UNL1        0.1116
     29 C         143.5267  138.9714  156.2441 C.ar    1  UNL1       -0.0129
     30 C         144.2404  138.0656  155.2850 C.ar    1  UNL1       -0.0007
     31 C         144.1757  136.5783  155.4685 C.ar    1  UNL1        0.0369
     32 C         143.3972  135.9969  156.6112 C.ar    1  UNL1        0.1468
     33 C         142.6835  136.9027  157.5704 C.ar    1  UNL1        0.0369
     34 C         142.7482  138.3900  157.3869 C.ar    1  UNL1       -0.0007
     35 O         143.3325  134.5095  156.7949 O.3     1  UNL1       -0.4045
     36 C         142.9256  133.6295  155.6503 C.3     1  UNL1        0.5753
     37 F         142.5186  132.7496  154.5057 F       1  UNL1       -0.1328
     38 F         144.2760  132.9770  155.6718 F       1  UNL1       -0.1328
     39 F         141.5751  134.2821  155.6287 F       1  UNL1       -0.1328
@<TRIPOS>BOND
     1    17    18    1
     2    18    19   ar
     3    19    20   ar
     4    20    21   ar
     5    21    11    1
     6    11    12   ar
     7    12    13   ar
     8    13    14   ar
     9    14    10    1
    10     1    10    1
    11     1     2    1
    12     2     3    1
    13     3     4    1
    14     4     5   am
    15     5     6    2
    16     5    28    1
    17    28    29    1
    18    29    30   ar
    19    30    31   ar
    20    31    32   ar
    21    32    35    1
    22    35    36    1
    23    36    37    1
    24    36    38    1
    25    36    39    1
    26    32    33   ar
    27    33    34   ar
    28     4     7    1
    29     7     8    1
    30     8     9    1
    31    14    15   ar
    32    15    23    1
    33    23    24   am
    34    23    25    2
    35    15    16   ar
    36    21    22   ar
    37    22    18   ar
    38    16    11   ar
    39     8     1    1
    40    34    29   ar
    41    24    26    1
    42    24    27    1
