@<TRIPOS>MOLECULE
*****
 17 19 0 0 0
SMALL
GASTEIGER

@<TRIPOS>ATOM
      1 C         139.1527  140.3820  165.8471 C.ar    1  UNL1        0.1241
      2 C         139.0566  139.6206  167.1359 C.ar    1  UNL1        0.0360
      3 C         139.6326  140.4770  168.2244 C.ar    1  UNL1        0.0372
      4 C         139.8038  140.2484  169.6969 C.ar    1  UNL1        0.0031
      5 C         140.4272  141.3104  170.5533 C.ar    1  UNL1        0.0002
      6 C         140.8793  142.6012  169.9371 C.ar    1  UNL1        0.0031
      7 C         140.7081  142.8298  168.4646 C.ar    1  UNL1        0.0375
      8 C         140.0847  141.7678  167.6082 C.ar    1  UNL1        0.1448
      9 O         139.7881  141.7090  166.1390 O.2     1  UNL1       -0.4577
     10 C         138.0306  138.1896  161.6754 C.2     1  UNL1       -0.0136
     11 C         138.8151  137.7465  162.8747 C.2     1  UNL1       -0.0288
     12 C         139.1104  138.5079  164.1328 C.3     1  UNL1        0.0346
     13 C         138.6940  139.9008  164.5025 C.3     1  UNL1        0.0775
     14 C         137.8795  140.8761  163.7053 C.3     1  UNL1        0.0767
     15 N         137.2803  140.6994  162.3416 N.3     1  UNL1       -0.2934
     16 C         137.3475  139.5038  161.4382 C.3     1  UNL1        0.0950
     17 H         137.6751  141.4600  161.7885 H       1  UNL1        0.1236
@<TRIPOS>BOND
     1    10    11    2
     2    11    12    1
     3    12    13    1
     4    13     1    1
     5     1     2   ar
     6     2     3   ar
     7     3     4   ar
     8     4     5   ar
     9     5     6   ar
    10     6     7   ar
    11     7     8   ar
    12     8     9   ar
    13    13    14    1
    14    14    15    1
    15    15    16    1
    16    16    10    1
    17     9     1   ar
    18     8     3   ar
    19    15    17    1
@<TRIPOS>MOLECULE
*****
 17 19 0 0 0
SMALL
GASTEIGER

@<TRIPOS>ATOM
      1 C         154.6537  131.9389  163.2138 C.ar    1  UNL1        0.1241
      2 C         154.5638  133.2654  162.5195 C.ar    1  UNL1        0.0360
      3 C         154.5279  134.3365  163.5690 C.ar    1  UNL1        0.0372
      4 C         154.4424  135.8311  163.4753 C.ar    1  UNL1        0.0031
      5 C         154.4245  136.6611  164.7246 C.ar    1  UNL1        0.0002
      6 C         154.4922  135.9964  166.0676 C.ar    1  UNL1        0.0031
      7 C         154.5778  134.5018  166.1613 C.ar    1  UNL1        0.0375
      8 C         154.5957  133.6719  164.9120 C.ar    1  UNL1        0.1448
      9 O         154.6734  132.1901  164.6925 O.2     1  UNL1       -0.4577
     10 C         154.1070  127.6903  160.9513 C.2     1  UNL1       -0.0136
     11 C         153.1411  128.7816  161.3063 C.2     1  UNL1       -0.0288
     12 C         153.4109  130.0751  162.0162 C.3     1  UNL1        0.0346
     13 C         154.7134  130.5967  162.5466 C.3     1  UNL1        0.0775
     14 C         156.0678  129.9538  162.4980 C.3     1  UNL1        0.0767
     15 N         156.4540  128.6304  161.9070 N.3     1  UNL1       -0.2934
     16 C         155.5815  127.6230  161.2187 C.3     1  UNL1        0.0950
     17 H         156.8742  128.1173  162.6820 H       1  UNL1        0.1236
@<TRIPOS>BOND
     1    10    11    2
     2    11    12    1
     3    12    13    1
     4    13     1    1
     5     1     2   ar
     6     2     3   ar
     7     3     4   ar
     8     4     5   ar
     9     5     6   ar
    10     6     7   ar
    11     7     8   ar
    12     8     9   ar
    13    13    14    1
    14    14    15    1
    15    15    16    1
    16    16    10    1
    17     9     1   ar
    18     8     3   ar
    19    15    17    1
@<TRIPOS>MOLECULE
*****
 17 19 0 0 0
SMALL
GASTEIGER

@<TRIPOS>ATOM
      1 C         139.3143  140.3917  166.1808 C.ar    1  UNL1        0.1241
      2 C         139.2084  139.6475  167.4789 C.ar    1  UNL1        0.0360
      3 C         139.7660  140.5229  168.5619 C.ar    1  UNL1        0.0372
      4 C         139.9217  140.3158  170.0393 C.ar    1  UNL1        0.0031
      5 C         140.5279  141.3938  170.8880 C.ar    1  UNL1        0.0002
      6 C         140.9783  142.6790  170.2592 C.ar    1  UNL1        0.0031
      7 C         140.8226  142.8861  168.7818 C.ar    1  UNL1        0.0375
      8 C         140.2165  141.8081  167.9331 C.ar    1  UNL1        0.1448
      9 O         139.9373  141.7270  166.4616 O.2     1  UNL1       -0.4577
     10 C         137.6410  139.4670  161.7296 C.2     1  UNL1       -0.0136
     11 C         137.6485  140.7078  162.5724 C.2     1  UNL1       -0.0288
     12 C         138.1974  140.8956  163.9557 C.3     1  UNL1        0.0346
     13 C         138.8744  139.8888  164.8378 C.3     1  UNL1        0.0775
     14 C         139.1697  138.4457  164.5546 C.3     1  UNL1        0.0767
     15 N         138.8608  137.6529  163.3192 N.3     1  UNL1       -0.2934
     16 C         138.1805  138.1074  162.0619 C.3     1  UNL1        0.0950
     17 H         138.2912  136.8745  163.6508 H       1  UNL1        0.1236
@<TRIPOS>BOND
     1    10    11    2
     2    11    12    1
     3    12    13    1
     4    13     1    1
     5     1     2   ar
     6     2     3   ar
     7     3     4   ar
     8     4     5   ar
     9     5     6   ar
    10     6     7   ar
    11     7     8   ar
    12     8     9   ar
    13    13    14    1
    14    14    15    1
    15    15    16    1
    16    16    10    1
    17     9     1   ar
    18     8     3   ar
    19    15    17    1
@<TRIPOS>MOLECULE
*****
 17 19 0 0 0
SMALL
GASTEIGER

@<TRIPOS>ATOM
      1 C         139.7140  139.7274  166.4452 C.ar    1  UNL1        0.1241
      2 C         138.9851  140.7168  165.5851 C.ar    1  UNL1        0.0360
      3 C         138.6167  140.0327  164.3020 C.ar    1  UNL1        0.0372
      4 C         137.8896  140.5132  163.0812 C.ar    1  UNL1        0.0031
      5 C         137.6637  139.5816  161.9276 C.ar    1  UNL1        0.0002
      6 C         138.1649  138.1694  161.9947 C.ar    1  UNL1        0.0031
      7 C         138.8920  137.6889  163.2155 C.ar    1  UNL1        0.0375
      8 C         139.1179  138.6205  164.3691 C.ar    1  UNL1        0.1448
      9 O         139.7961  138.4318  165.6937 O.2     1  UNL1       -0.4577
     10 C         142.1672  140.4914  170.5521 C.2     1  UNL1       -0.0136
     11 C         142.6068  140.2043  169.1470 C.2     1  UNL1       -0.0288
     12 C         141.7600  139.9802  167.9293 C.3     1  UNL1        0.0346
     13 C         140.2643  139.9878  167.8161 C.3     1  UNL1        0.0775
     14 C         139.2460  140.2215  168.8925 C.3     1  UNL1        0.0767
     15 N         139.4721  140.5052  170.3480 N.3     1  UNL1       -0.2934
     16 C         140.7721  140.6254  171.0866 C.3     1  UNL1        0.0950
     17 H         138.9697  139.7625  170.8341 H       1  UNL1        0.1236
@<TRIPOS>BOND
     1    10    11    2
     2    11    12    1
     3    12    13    1
     4    13     1    1
     5     1     2   ar
     6     2     3   ar
     7     3     4   ar
     8     4     5   ar
     9     5     6   ar
    10     6     7   ar
    11     7     8   ar
    12     8     9   ar
    13    13    14    1
    14    14    15    1
    15    15    16    1
    16    16    10    1
    17     9     1   ar
    18     8     3   ar
    19    15    17    1
@<TRIPOS>MOLECULE
*****
 17 19 0 0 0
SMALL
GASTEIGER

@<TRIPOS>ATOM
      1 C         141.9967  139.1932  165.8713 C.ar    1  UNL1        0.1241
      2 C         142.8667  139.1619  167.0928 C.ar    1  UNL1        0.0360
      3 C         142.0415  139.6126  168.2615 C.ar    1  UNL1        0.0372
      4 C         142.3684  139.7809  169.7157 C.ar    1  UNL1        0.0031
      5 C         141.3152  140.2591  170.6707 C.ar    1  UNL1        0.0002
      6 C         139.9351  140.5690  170.1715 C.ar    1  UNL1        0.0031
      7 C         139.6081  140.4007  168.7173 C.ar    1  UNL1        0.0375
      8 C         140.6613  139.9225  167.7623 C.ar    1  UNL1        0.1448
      9 O         140.6337  139.6633  166.2851 O.2     1  UNL1       -0.4577
     10 C         142.6560  137.7088  161.3073 C.2     1  UNL1       -0.0136
     11 C         141.4820  137.6346  162.2380 C.2     1  UNL1       -0.0288
     12 C         141.3751  138.1291  163.6501 C.3     1  UNL1        0.0346
     13 C         142.4160  138.8200  164.4804 C.3     1  UNL1        0.0775
     14 C         143.8208  139.1870  164.1035 C.3     1  UNL1        0.0767
     15 N         144.5315  138.9537  162.8034 N.3     1  UNL1       -0.2934
     16 C         144.0132  138.2959  161.5590 C.3     1  UNL1        0.0950
     17 H         145.3552  138.4080  163.0568 H       1  UNL1        0.1236
@<TRIPOS>BOND
     1    10    11    2
     2    11    12    1
     3    12    13    1
     4    13     1    1
     5     1     2   ar
     6     2     3   ar
     7     3     4   ar
     8     4     5   ar
     9     5     6   ar
    10     6     7   ar
    11     7     8   ar
    12     8     9   ar
    13    13    14    1
    14    14    15    1
    15    15    16    1
    16    16    10    1
    17     9     1   ar
    18     8     3   ar
    19    15    17    1
@<TRIPOS>MOLECULE
*****
 17 19 0 0 0
SMALL
GASTEIGER

@<TRIPOS>ATOM
      1 C         140.4632  139.9588  166.9807 C.ar    1  UNL1        0.1241
      2 C         139.2309  139.8471  166.1328 C.ar    1  UNL1        0.0360
      3 C         139.5615  138.9934  164.9445 C.ar    1  UNL1        0.0372
      4 C         138.7401  138.5411  163.7739 C.ar    1  UNL1        0.0031
      5 C         139.3553  137.6728  162.7168 C.ar    1  UNL1        0.0002
      6 C         140.7919  137.2568  162.8304 C.ar    1  UNL1        0.0031
      7 C         141.6134  137.7091  164.0010 C.ar    1  UNL1        0.0375
      8 C         140.9982  138.5774  165.0581 C.ar    1  UNL1        0.1448
      9 O         141.5554  139.1740  166.3165 O.2     1  UNL1       -0.4577
     10 C         140.7180  143.0328  170.7162 C.2     1  UNL1       -0.0136
     11 C         140.4688  143.2360  169.2511 C.2     1  UNL1       -0.0288
     12 C         140.4084  142.2074  168.1610 C.3     1  UNL1        0.0346
     13 C         140.5822  140.7212  168.2669 C.3     1  UNL1        0.0775
     14 C         140.8594  139.8967  169.4890 C.3     1  UNL1        0.0767
     15 N         141.0312  140.3548  170.9070 N.3     1  UNL1       -0.2934
     16 C         140.9683  141.7505  171.4532 C.3     1  UNL1        0.0950
     17 H         141.9559  140.0173  171.1742 H       1  UNL1        0.1236
@<TRIPOS>BOND
     1    10    11    2
     2    11    12    1
     3    12    13    1
     4    13     1    1
     5     1     2   ar
     6     2     3   ar
     7     3     4   ar
     8     4     5   ar
     9     5     6   ar
    10     6     7   ar
    11     7     8   ar
    12     8     9   ar
    13    13    14    1
    14    14    15    1
    15    15    16    1
    16    16    10    1
    17     9     1   ar
    18     8     3   ar
    19    15    17    1
@<TRIPOS>MOLECULE
*****
 17 19 0 0 0
SMALL
GASTEIGER

@<TRIPOS>ATOM
      1 C         140.1094  141.9190  166.8052 C.ar    1  UNL1        0.1241
      2 C         140.0338  143.3594  166.3933 C.ar    1  UNL1        0.0360
      3 C         139.2395  143.4373  165.1232 C.ar    1  UNL1        0.0372
      4 C         138.8408  144.5961  164.2583 C.ar    1  UNL1        0.0031
      5 C         138.0267  144.3626  163.0203 C.ar    1  UNL1        0.0002
      6 C         137.6114  142.9704  162.6472 C.ar    1  UNL1        0.0031
      7 C         138.0102  141.8116  163.5121 C.ar    1  UNL1        0.0375
      8 C         138.8242  142.0450  164.7501 C.ar    1  UNL1        0.1448
      9 O         139.3619  141.1067  165.7896 O.2     1  UNL1       -0.4577
     10 C         142.6577  139.6765  170.2614 C.2     1  UNL1       -0.0136
     11 C         142.5017  139.4235  168.7911 C.2     1  UNL1       -0.0288
     12 C         141.6793  140.1837  167.7933 C.3     1  UNL1        0.0346
     13 C         140.8097  141.3848  168.0193 C.3     1  UNL1        0.0775
     14 C         140.5476  142.1223  169.2990 C.3     1  UNL1        0.0767
     15 N         141.0906  141.8408  170.6686 N.3     1  UNL1       -0.2934
     16 C         142.0297  140.7523  171.0970 C.3     1  UNL1        0.0950
     17 H         140.2627  141.7071  171.2492 H       1  UNL1        0.1236
@<TRIPOS>BOND
     1    10    11    2
     2    11    12    1
     3    12    13    1
     4    13     1    1
     5     1     2   ar
     6     2     3   ar
     7     3     4   ar
     8     4     5   ar
     9     5     6   ar
    10     6     7   ar
    11     7     8   ar
    12     8     9   ar
    13    13    14    1
    14    14    15    1
    15    15    16    1
    16    16    10    1
    17     9     1   ar
    18     8     3   ar
    19    15    17    1
@<TRIPOS>MOLECULE
*****
 17 19 0 0 0
SMALL
GASTEIGER

@<TRIPOS>ATOM
      1 C         140.9536  140.4755  166.5832 C.ar    1  UNL1        0.1241
      2 C         142.2655  140.4773  167.3105 C.ar    1  UNL1        0.0360
      3 C         142.2005  141.5257  168.3812 C.ar    1  UNL1        0.0372
      4 C         143.1978  141.9755  169.4074 C.ar    1  UNL1        0.0031
      5 C         142.8430  143.0715  170.3680 C.ar    1  UNL1        0.0002
      6 C         141.4909  143.7177  170.3026 C.ar    1  UNL1        0.0031
      7 C         140.4936  143.2679  169.2764 C.ar    1  UNL1        0.0375
      8 C         140.8484  142.1719  168.3157 C.ar    1  UNL1        0.1448
      9 O         140.0778  141.5228  167.2045 O.2     1  UNL1       -0.4577
     10 C         140.4446  137.3022  162.9584 C.2     1  UNL1       -0.0136
     11 C         141.5759  137.5938  163.8992 C.2     1  UNL1       -0.0288
     12 C         141.6374  138.6088  165.0019 C.3     1  UNL1        0.0346
     13 C         140.5827  139.5830  165.4361 C.3     1  UNL1        0.0775
     14 C         139.2060  139.7828  164.8749 C.3     1  UNL1        0.0767
     15 N         138.5441  139.0576  163.7408 N.3     1  UNL1       -0.2934
     16 C         139.0953  137.9536  162.8879 C.3     1  UNL1        0.0950
     17 H         138.2952  139.7922  163.0784 H       1  UNL1        0.1236
@<TRIPOS>BOND
     1    10    11    2
     2    11    12    1
     3    12    13    1
     4    13     1    1
     5     1     2   ar
     6     2     3   ar
     7     3     4   ar
     8     4     5   ar
     9     5     6   ar
    10     6     7   ar
    11     7     8   ar
    12     8     9   ar
    13    13    14    1
    14    14    15    1
    15    15    16    1
    16    16    10    1
    17     9     1   ar
    18     8     3   ar
    19    15    17    1
@<TRIPOS>MOLECULE
*****
 17 19 0 0 0
SMALL
GASTEIGER

@<TRIPOS>ATOM
      1 C         140.3509  142.0058  166.7349 C.ar    1  UNL1        0.1241
      2 C         139.6696  141.1278  165.7274 C.ar    1  UNL1        0.0360
      3 C         138.9543  142.0125  164.7498 C.ar    1  UNL1        0.0372
      4 C         138.1161  141.7048  163.5446 C.ar    1  UNL1        0.0031
      5 C         137.5171  142.8219  162.7426 C.ar    1  UNL1        0.0002
      6 C         137.7563  144.2467  163.1459 C.ar    1  UNL1        0.0031
      7 C         138.5945  144.5544  164.3511 C.ar    1  UNL1        0.0375
      8 C         139.1935  143.4373  165.1531 C.ar    1  UNL1        0.1448
      9 O         140.0566  143.4332  166.3799 O.2     1  UNL1       -0.4577
     10 C         143.4642  141.0941  170.3327 C.2     1  UNL1       -0.0136
     11 C         143.3962  142.1819  169.3020 C.2     1  UNL1       -0.0288
     12 C         142.3800  142.3797  168.2166 C.3     1  UNL1        0.0346
     13 C         141.1807  141.5385  167.8938 C.3     1  UNL1        0.0775
     14 C         140.7014  140.2918  168.5766 C.3     1  UNL1        0.0767
     15 N         141.3032  139.5785  169.7509 N.3     1  UNL1       -0.2934
     16 C         142.5327  139.9355  170.5324 C.3     1  UNL1        0.0950
     17 H         141.4816  138.6333  169.4116 H       1  UNL1        0.1236
@<TRIPOS>BOND
     1    10    11    2
     2    11    12    1
     3    12    13    1
     4    13     1    1
     5     1     2   ar
     6     2     3   ar
     7     3     4   ar
     8     4     5   ar
     9     5     6   ar
    10     6     7   ar
    11     7     8   ar
    12     8     9   ar
    13    13    14    1
    14    14    15    1
    15    15    16    1
    16    16    10    1
    17     9     1   ar
    18     8     3   ar
    19    15    17    1
