@<TRIPOS>MOLECULE
*****
 26 29 0 0 0
SMALL
GASTEIGER

@<TRIPOS>ATOM
      1 C         139.6858  140.9608  164.6930 C.3     1  UNL1        0.2542
      2 C         138.2965  141.4779  164.9218 C.3     1  UNL1        0.2573
      3 N         137.6370  141.6422  163.5846 N.pl3   1  UNL1       -0.2136
      4 C         138.6188  141.2268  162.5294 C.2     1  UNL1        0.3356
      5 N         139.8850  140.8056  163.2144 N.2     1  UNL1       -0.0599
      6 H         136.7207  141.9659  163.4271 H       1  UNL1        0.2924
      7 F         145.3231  138.9338  165.0290 F       1  UNL1       -0.2042
      8 C         143.9138  139.4406  164.9450 C.ar    1  UNL1        0.1401
      9 C         142.7646  138.4993  165.1530 C.ar    1  UNL1        0.0295
     10 C         141.3553  139.0060  165.0690 C.ar    1  UNL1        0.0025
     11 C         141.0951  140.4541  164.7770 C.ar    1  UNL1        0.0298
     12 C         142.2443  141.3954  164.5690 C.ar    1  UNL1        0.0025
     13 C         143.6536  140.8887  164.6530 C.ar    1  UNL1        0.0295
     14 C         139.7813  141.0101  166.1892 C.ar    1  UNL1        0.0298
     15 C         139.2555  139.8716  167.0122 C.ar    1  UNL1        0.0025
     16 C         139.3509  139.9209  168.5082 C.ar    1  UNL1        0.0295
     17 C         139.9721  141.1086  169.1814 C.ar    1  UNL1        0.1401
     18 F         140.0676  141.1579  170.6776 F       1  UNL1       -0.2042
     19 C         140.4979  142.2472  168.3585 C.ar    1  UNL1        0.0295
     20 C         140.4025  142.1979  166.8624 C.ar    1  UNL1        0.0025
     21 C         138.3768  141.2316  161.0491 C.ar    1  UNL1        0.1819
     22 C         137.9088  139.9832  160.3616 C.ar    1  UNL1        0.1255
     23 N         137.6668  139.9880  158.8813 N.ar    1  UNL1       -0.2389
     24 C         137.8927  141.2411  158.0883 C.ar    1  UNL1        0.1195
     25 C         138.3607  142.4894  158.7758 C.ar    1  UNL1        0.1198
     26 N         138.6027  142.4847  160.2562 N.ar    1  UNL1       -0.2333
@<TRIPOS>BOND
     1     7     8    1
     2     8     9   ar
     3     9    10   ar
     4    10    11   ar
     5    11     1    1
     6     1    14    1
     7    14    15   ar
     8    15    16   ar
     9    16    17   ar
    10    17    18    1
    11    17    19   ar
    12    19    20   ar
    13     1     2    1
    14     2     3    1
    15     3     4    1
    16     4    21    1
    17    21    22   ar
    18    22    23   ar
    19    23    24   ar
    20    24    25   ar
    21    25    26   ar
    22     4     5    2
    23    11    12   ar
    24    12    13   ar
    25    13     8   ar
    26     5     1    1
    27    20    14   ar
    28    26    21   ar
    29     3     6    1
@<TRIPOS>MOLECULE
*****
 26 29 0 0 0
SMALL
GASTEIGER

@<TRIPOS>ATOM
      1 C         142.9737  141.2142  164.4090 C.3     1  UNL1        0.2542
      2 C         144.2489  140.4351  164.5377 C.3     1  UNL1        0.2573
      3 N         144.8085  140.2312  163.1609 N.pl3   1  UNL1       -0.2136
      4 C         143.8791  140.8843  162.1814 C.2     1  UNL1        0.3356
      5 N         142.7451  141.4919  162.9527 N.2     1  UNL1       -0.0599
      6 H         145.6398  139.7527  162.9392 H       1  UNL1        0.2924
      7 F         137.8393  144.2305  165.1441 F       1  UNL1       -0.2042
      8 C         139.1229  143.4764  164.9603 C.ar    1  UNL1        0.1401
      9 C         140.3760  144.2095  164.5829 C.ar    1  UNL1        0.0295
     10 C         141.6596  143.4554  164.3992 C.ar    1  UNL1        0.0025
     11 C         141.6901  141.9683  164.5927 C.ar    1  UNL1        0.0298
     12 C         140.4370  141.2353  164.9701 C.ar    1  UNL1        0.0025
     13 C         139.1534  141.9893  165.1539 C.ar    1  UNL1        0.0295
     14 C         142.9339  141.0942  165.9036 C.ar    1  UNL1        0.0298
     15 C         142.6654  139.7638  166.5424 C.ar    1  UNL1        0.0025
     16 C         142.6257  139.6438  168.0369 C.ar    1  UNL1        0.0295
     17 C         142.8545  140.8542  168.8929 C.ar    1  UNL1        0.1401
     18 F         142.8147  140.7341  170.3876 F       1  UNL1       -0.2042
     19 C         143.1230  142.1845  168.2543 C.ar    1  UNL1        0.0295
     20 C         143.1627  142.3045  166.7596 C.ar    1  UNL1        0.0025
     21 C         144.0531  140.9231  160.6920 C.ar    1  UNL1        0.1819
     22 C         143.8259  139.6840  159.8779 C.ar    1  UNL1        0.1255
     23 N         143.9999  139.7226  158.3886 N.ar    1  UNL1       -0.2389
     24 C         144.4011  141.0005  157.7133 C.ar    1  UNL1        0.1195
     25 C         144.6283  142.2397  158.5274 C.ar    1  UNL1        0.1198
     26 N         144.4543  142.2010  160.0168 N.ar    1  UNL1       -0.2333
@<TRIPOS>BOND
     1     7     8    1
     2     8     9   ar
     3     9    10   ar
     4    10    11   ar
     5    11     1    1
     6     1    14    1
     7    14    15   ar
     8    15    16   ar
     9    16    17   ar
    10    17    18    1
    11    17    19   ar
    12    19    20   ar
    13     1     2    1
    14     2     3    1
    15     3     4    1
    16     4    21    1
    17    21    22   ar
    18    22    23   ar
    19    23    24   ar
    20    24    25   ar
    21    25    26   ar
    22     4     5    2
    23    11    12   ar
    24    12    13   ar
    25    13     8   ar
    26     5     1    1
    27    20    14   ar
    28    26    21   ar
    29     3     6    1
@<TRIPOS>MOLECULE
*****
 26 29 0 0 0
SMALL
GASTEIGER

@<TRIPOS>ATOM
      1 C         140.7532  139.7049  164.7294 C.3     1  UNL1        0.2542
      2 C         141.3444  138.3423  164.9379 C.3     1  UNL1        0.2573
      3 N         141.5811  137.7284  163.5899 N.pl3   1  UNL1       -0.2136
      4 C         141.1361  138.7117  162.5482 C.2     1  UNL1        0.3356
      5 N         140.6244  139.9333  163.2524 N.2     1  UNL1       -0.0599
      6 H         141.9617  136.8367  163.4188 H       1  UNL1        0.2924
      7 F         138.3926  145.2051  165.1485 F       1  UNL1       -0.2042
      8 C         138.9828  143.8301  165.0437 C.ar    1  UNL1        0.1401
      9 C         140.4332  143.6105  165.3568 C.ar    1  UNL1        0.0295
     10 C         141.0233  142.2355  165.2520 C.ar    1  UNL1        0.0025
     11 C         140.1630  141.0800  164.8341 C.ar    1  UNL1        0.0298
     12 C         138.7126  141.2995  164.5210 C.ar    1  UNL1        0.0025
     13 C         138.1225  142.6746  164.6258 C.ar    1  UNL1        0.0295
     14 C         140.7585  139.7641  166.2282 C.ar    1  UNL1        0.0298
     15 C         142.0575  139.7105  166.9763 C.ar    1  UNL1        0.0025
     16 C         142.0629  139.7696  168.4750 C.ar    1  UNL1        0.0295
     17 C         140.7692  139.8823  169.2258 C.ar    1  UNL1        0.1401
     18 F         140.7746  139.9415  170.7246 F       1  UNL1       -0.2042
     19 C         139.4702  139.9359  168.4778 C.ar    1  UNL1        0.0295
     20 C         139.4648  139.8768  166.9790 C.ar    1  UNL1        0.0025
     21 C         141.1929  138.5090  161.0631 C.ar    1  UNL1        0.1819
     22 C         142.4752  138.0810  160.4130 C.ar    1  UNL1        0.1255
     23 N         142.5320  137.8782  158.9279 N.ar    1  UNL1       -0.2389
     24 C         141.3066  138.1036  158.0927 C.ar    1  UNL1        0.1195
     25 C         140.0243  138.5316  158.7427 C.ar    1  UNL1        0.1198
     26 N         139.9674  138.7343  160.2279 N.ar    1  UNL1       -0.2333
@<TRIPOS>BOND
     1     7     8    1
     2     8     9   ar
     3     9    10   ar
     4    10    11   ar
     5    11     1    1
     6     1    14    1
     7    14    15   ar
     8    15    16   ar
     9    16    17   ar
    10    17    18    1
    11    17    19   ar
    12    19    20   ar
    13     1     2    1
    14     2     3    1
    15     3     4    1
    16     4    21    1
    17    21    22   ar
    18    22    23   ar
    19    23    24   ar
    20    24    25   ar
    21    25    26   ar
    22     4     5    2
    23    11    12   ar
    24    12    13   ar
    25    13     8   ar
    26     5     1    1
    27    20    14   ar
    28    26    21   ar
    29     3     6    1
@<TRIPOS>MOLECULE
*****
 26 29 0 0 0
SMALL
GASTEIGER

@<TRIPOS>ATOM
      1 C         140.9180  141.8306  165.2433 C.3     1  UNL1        0.2542
      2 C         141.7257  143.0812  165.4263 C.3     1  UNL1        0.2573
      3 N         141.7015  143.8418  164.1336 N.pl3   1  UNL1       -0.2136
      4 C         140.8788  143.0612  163.1518 C.2     1  UNL1        0.3356
      5 N         140.3946  141.8182  163.8377 N.2     1  UNL1       -0.0599
      6 H         142.1472  144.7023  163.9600 H       1  UNL1        0.2924
      7 F         137.9974  136.6100  165.7076 F       1  UNL1       -0.2042
      8 C         138.7276  137.9151  165.5915 C.ar    1  UNL1        0.1401
      9 C         140.0217  137.9860  164.8365 C.ar    1  UNL1        0.0295
     10 C         140.7519  139.2911  164.7204 C.ar    1  UNL1        0.0025
     11 C         140.1879  140.5254  165.3594 C.ar    1  UNL1        0.0298
     12 C         138.8937  140.4546  166.1144 C.ar    1  UNL1        0.0025
     13 C         138.1636  139.1495  166.2305 C.ar    1  UNL1        0.0295
     14 C         141.2888  141.5701  166.6733 C.ar    1  UNL1        0.0298
     15 C         142.2624  140.4795  167.0090 C.ar    1  UNL1        0.0025
     16 C         142.6331  140.2190  168.4388 C.ar    1  UNL1        0.0295
     17 C         142.0303  141.0492  169.5331 C.ar    1  UNL1        0.1401
     18 F         142.4010  140.7887  170.9630 F       1  UNL1       -0.2042
     19 C         141.0567  142.1398  169.1975 C.ar    1  UNL1        0.0295
     20 C         140.6860  142.4002  167.7675 C.ar    1  UNL1        0.0025
     21 C         140.5909  143.4546  161.7332 C.ar    1  UNL1        0.1819
     22 C         139.3347  142.9815  161.0640 C.ar    1  UNL1        0.1255
     23 N         139.0467  143.3748  159.6454 N.ar    1  UNL1       -0.2389
     24 C         140.0150  144.2413  158.8960 C.ar    1  UNL1        0.1195
     25 C         141.2713  144.7144  159.5653 C.ar    1  UNL1        0.1198
     26 N         141.5593  144.3211  160.9839 N.ar    1  UNL1       -0.2333
@<TRIPOS>BOND
     1     7     8    1
     2     8     9   ar
     3     9    10   ar
     4    10    11   ar
     5    11     1    1
     6     1    14    1
     7    14    15   ar
     8    15    16   ar
     9    16    17   ar
    10    17    18    1
    11    17    19   ar
    12    19    20   ar
    13     1     2    1
    14     2     3    1
    15     3     4    1
    16     4    21    1
    17    21    22   ar
    18    22    23   ar
    19    23    24   ar
    20    24    25   ar
    21    25    26   ar
    22     4     5    2
    23    11    12   ar
    24    12    13   ar
    25    13     8   ar
    26     5     1    1
    27    20    14   ar
    28    26    21   ar
    29     3     6    1
@<TRIPOS>MOLECULE
*****
 26 29 0 0 0
SMALL
GASTEIGER

@<TRIPOS>ATOM
      1 C         141.0413  142.6685  164.6263 C.3     1  UNL1        0.2542
      2 C         141.7645  143.9806  164.6988 C.3     1  UNL1        0.2573
      3 N         141.7424  144.5982  163.3319 N.pl3   1  UNL1       -0.2136
      4 C         141.0056  143.6677  162.4147 C.2     1  UNL1        0.3356
      5 N         140.5723  142.4751  163.2147 N.2     1  UNL1       -0.0599
      6 H         142.1415  145.4624  163.0809 H       1  UNL1        0.2924
      7 F         138.4264  137.3491  165.5574 F       1  UNL1       -0.2042
      8 C         139.0801  138.6790  165.3246 C.ar    1  UNL1        0.1401
      9 C         138.2519  139.9294  165.3096 C.ar    1  UNL1        0.0295
     10 C         138.9056  141.2593  165.0768 C.ar    1  UNL1        0.0025
     11 C         140.3876  141.3387  164.8591 C.ar    1  UNL1        0.0298
     12 C         141.2158  140.0882  164.8742 C.ar    1  UNL1        0.0025
     13 C         140.5621  138.7583  165.1069 C.ar    1  UNL1        0.0295
     14 C         141.3736  142.5839  166.0866 C.ar    1  UNL1        0.0298
     15 C         142.7541  142.1884  166.5199 C.ar    1  UNL1        0.0025
     16 C         143.0864  142.1038  167.9801 C.ar    1  UNL1        0.0295
     17 C         142.0382  142.4147  169.0071 C.ar    1  UNL1        0.1401
     18 F         142.3705  142.3301  170.4674 F       1  UNL1       -0.2042
     19 C         140.6577  142.8102  168.5738 C.ar    1  UNL1        0.0295
     20 C         140.3254  142.8948  167.1135 C.ar    1  UNL1        0.0025
     21 C         140.7475  143.8907  160.9540 C.ar    1  UNL1        0.1819
     22 C         139.5143  143.3239  160.3153 C.ar    1  UNL1        0.1255
     23 N         139.2561  143.5469  158.8546 N.ar    1  UNL1       -0.2389
     24 C         140.2312  144.3366  158.0326 C.ar    1  UNL1        0.1195
     25 C         141.4644  144.9034  158.6714 C.ar    1  UNL1        0.1198
     26 N         141.7226  144.6804  160.1321 N.ar    1  UNL1       -0.2333
@<TRIPOS>BOND
     1     7     8    1
     2     8     9   ar
     3     9    10   ar
     4    10    11   ar
     5    11     1    1
     6     1    14    1
     7    14    15   ar
     8    15    16   ar
     9    16    17   ar
    10    17    18    1
    11    17    19   ar
    12    19    20   ar
    13     1     2    1
    14     2     3    1
    15     3     4    1
    16     4    21    1
    17    21    22   ar
    18    22    23   ar
    19    23    24   ar
    20    24    25   ar
    21    25    26   ar
    22     4     5    2
    23    11    12   ar
    24    12    13   ar
    25    13     8   ar
    26     5     1    1
    27    20    14   ar
    28    26    21   ar
    29     3     6    1
@<TRIPOS>MOLECULE
*****
 26 29 0 0 0
SMALL
GASTEIGER

@<TRIPOS>ATOM
      1 C         141.7756  139.5248  164.3394 C.3     1  UNL1        0.2542
      2 C         141.0951  138.1983  164.5047 C.3     1  UNL1        0.2573
      3 N         140.9534  137.5777  163.1464 N.pl3   1  UNL1       -0.2136
      4 C         141.5463  138.5207  162.1418 C.2     1  UNL1        0.3356
      5 N         142.0544  139.7241  162.8791 N.2     1  UNL1       -0.0599
      6 H         140.5433  136.7048  162.9490 H       1  UNL1        0.2924
      7 F         144.3779  144.8993  164.9253 F       1  UNL1       -0.2042
      8 C         143.7274  143.5557  164.7788 C.ar    1  UNL1        0.1401
      9 C         142.2316  143.4440  164.7665 C.ar    1  UNL1        0.0295
     10 C         141.5810  142.1004  164.6200 C.ar    1  UNL1        0.0025
     11 C         142.4262  140.8684  164.4859 C.ar    1  UNL1        0.0298
     12 C         143.9219  140.9801  164.4983 C.ar    1  UNL1        0.0025
     13 C         144.5725  142.3237  164.6447 C.ar    1  UNL1        0.0295
     14 C         141.6327  139.6065  165.8304 C.ar    1  UNL1        0.0298
     15 C         140.3168  139.9931  166.4377 C.ar    1  UNL1        0.0025
     16 C         140.1740  140.0748  167.9286 C.ar    1  UNL1        0.0295
     17 C         141.3471  139.7699  168.8122 C.ar    1  UNL1        0.1401
     18 F         141.2042  139.8515  170.3032 F       1  UNL1       -0.2042
     19 C         142.6630  139.3833  168.2050 C.ar    1  UNL1        0.0295
     20 C         142.8058  139.3016  166.7140 C.ar    1  UNL1        0.0025
     21 C         141.6184  138.2991  160.6600 C.ar    1  UNL1        0.1819
     22 C         142.8864  137.7939  160.0380 C.ar    1  UNL1        0.1255
     23 N         142.9586  137.5723  158.5563 N.ar    1  UNL1       -0.2389
     24 C         141.7627  137.8559  157.6964 C.ar    1  UNL1        0.1195
     25 C         140.4947  138.3611  158.3183 C.ar    1  UNL1        0.1198
     26 N         140.4225  138.5827  159.8002 N.ar    1  UNL1       -0.2333
@<TRIPOS>BOND
     1     7     8    1
     2     8     9   ar
     3     9    10   ar
     4    10    11   ar
     5    11     1    1
     6     1    14    1
     7    14    15   ar
     8    15    16   ar
     9    16    17   ar
    10    17    18    1
    11    17    19   ar
    12    19    20   ar
    13     1     2    1
    14     2     3    1
    15     3     4    1
    16     4    21    1
    17    21    22   ar
    18    22    23   ar
    19    23    24   ar
    20    24    25   ar
    21    25    26   ar
    22     4     5    2
    23    11    12   ar
    24    12    13   ar
    25    13     8   ar
    26     5     1    1
    27    20    14   ar
    28    26    21   ar
    29     3     6    1
@<TRIPOS>MOLECULE
*****
 26 29 0 0 0
SMALL
GASTEIGER

@<TRIPOS>ATOM
      1 C         139.9642  140.8802  162.8378 C.3     1  UNL1        0.2542
      2 C         138.5211  141.1467  162.5271 C.3     1  UNL1        0.2573
      3 N         138.4641  142.1724  161.4340 N.pl3   1  UNL1       -0.2136
      4 C         139.8719  142.5397  161.0691 C.2     1  UNL1        0.3356
      5 N         140.7990  141.7411  161.9367 N.2     1  UNL1       -0.0599
      6 H         137.6463  142.5400  161.0274 H       1  UNL1        0.2924
      7 F         145.2702  139.0124  164.9252 F       1  UNL1       -0.2042
      8 C         143.9437  139.4794  164.4034 C.ar    1  UNL1        0.1401
      9 C         143.4640  139.0220  163.0578 C.ar    1  UNL1        0.0295
     10 C         142.1375  139.4890  162.5359 C.ar    1  UNL1        0.0025
     11 C         141.2907  140.4133  163.3597 C.ar    1  UNL1        0.0298
     12 C         141.7704  140.8706  164.7053 C.ar    1  UNL1        0.0025
     13 C         143.0969  140.4036  165.2271 C.ar    1  UNL1        0.0295
     14 C         139.4066  139.9217  163.8480 C.ar    1  UNL1        0.0298
     15 C         138.6895  140.4411  165.0587 C.ar    1  UNL1        0.0025
     16 C         138.1321  139.4827  166.0689 C.ar    1  UNL1        0.0295
     17 C         138.2916  138.0047  165.8683 C.ar    1  UNL1        0.1401
     18 F         137.7341  137.0462  166.8785 F       1  UNL1       -0.2042
     19 C         139.0087  137.4853  164.6576 C.ar    1  UNL1        0.0295
     20 C         139.5662  138.4438  163.6474 C.ar    1  UNL1        0.0025
     21 C         140.2808  143.5315  160.0207 C.ar    1  UNL1        0.1819
     22 C         141.4126  144.4795  160.2859 C.ar    1  UNL1        0.1255
     23 N         141.8215  145.4713  159.2376 N.ar    1  UNL1       -0.2389
     24 C         141.0987  145.5152  157.9240 C.ar    1  UNL1        0.1195
     25 C         139.9669  144.5672  157.6588 C.ar    1  UNL1        0.1198
     26 N         139.5579  143.5753  158.7072 N.ar    1  UNL1       -0.2333
@<TRIPOS>BOND
     1     7     8    1
     2     8     9   ar
     3     9    10   ar
     4    10    11   ar
     5    11     1    1
     6     1    14    1
     7    14    15   ar
     8    15    16   ar
     9    16    17   ar
    10    17    18    1
    11    17    19   ar
    12    19    20   ar
    13     1     2    1
    14     2     3    1
    15     3     4    1
    16     4    21    1
    17    21    22   ar
    18    22    23   ar
    19    23    24   ar
    20    24    25   ar
    21    25    26   ar
    22     4     5    2
    23    11    12   ar
    24    12    13   ar
    25    13     8   ar
    26     5     1    1
    27    20    14   ar
    28    26    21   ar
    29     3     6    1
@<TRIPOS>MOLECULE
*****
 26 29 0 0 0
SMALL
GASTEIGER

@<TRIPOS>ATOM
      1 C         140.5462  141.9968  164.1421 C.3     1  UNL1        0.2542
      2 C         139.2041  142.6548  164.2680 C.3     1  UNL1        0.2573
      3 N         138.9474  143.4286  163.0088 N.pl3   1  UNL1       -0.2136
      4 C         140.1309  143.2489  162.1049 C.2     1  UNL1        0.3356
      5 N         141.1189  142.3640  162.8053 N.2     1  UNL1       -0.0599
      6 H         138.1434  143.9611  162.8106 H       1  UNL1        0.2924
      7 F         145.6590  138.9234  164.7848 F       1  UNL1       -0.2042
      8 C         144.3808  139.6917  164.6241 C.ar    1  UNL1        0.1401
      9 C         144.3894  141.1890  164.7138 C.ar    1  UNL1        0.0295
     10 C         143.1112  141.9574  164.5531 C.ar    1  UNL1        0.0025
     11 C         141.8244  141.2284  164.3028 C.ar    1  UNL1        0.0298
     12 C         141.8158  139.7312  164.2131 C.ar    1  UNL1        0.0025
     13 C         143.0940  138.9628  164.3738 C.ar    1  UNL1        0.0295
     14 C         140.2406  141.4690  165.5125 C.ar    1  UNL1        0.0298
     15 C         140.8032  142.1538  166.7227 C.ar    1  UNL1        0.0025
     16 C         140.4977  141.6260  168.0930 C.ar    1  UNL1        0.0295
     17 C         139.6296  140.4133  168.2533 C.ar    1  UNL1        0.1401
     18 F         139.3240  139.8855  169.6237 F       1  UNL1       -0.2042
     19 C         139.0669  139.7285  167.0433 C.ar    1  UNL1        0.0295
     20 C         139.3725  140.2563  165.6728 C.ar    1  UNL1        0.0025
     21 C         140.2970  143.8488  160.7402 C.ar    1  UNL1        0.1819
     22 C         141.3852  144.8500  160.4884 C.ar    1  UNL1        0.1255
     23 N         141.5514  145.4500  159.1238 N.ar    1  UNL1       -0.2389
     24 C         140.6293  145.0487  158.0107 C.ar    1  UNL1        0.1195
     25 C         139.5411  144.0475  158.2624 C.ar    1  UNL1        0.1198
     26 N         139.3749  143.4475  159.6272 N.ar    1  UNL1       -0.2333
@<TRIPOS>BOND
     1     7     8    1
     2     8     9   ar
     3     9    10   ar
     4    10    11   ar
     5    11     1    1
     6     1    14    1
     7    14    15   ar
     8    15    16   ar
     9    16    17   ar
    10    17    18    1
    11    17    19   ar
    12    19    20   ar
    13     1     2    1
    14     2     3    1
    15     3     4    1
    16     4    21    1
    17    21    22   ar
    18    22    23   ar
    19    23    24   ar
    20    24    25   ar
    21    25    26   ar
    22     4     5    2
    23    11    12   ar
    24    12    13   ar
    25    13     8   ar
    26     5     1    1
    27    20    14   ar
    28    26    21   ar
    29     3     6    1
@<TRIPOS>MOLECULE
*****
 26 29 0 0 0
SMALL
GASTEIGER

@<TRIPOS>ATOM
      1 C         141.7693  142.8503  161.5291 C.3     1  UNL1        0.2542
      2 C         140.6518  142.5933  160.5621 C.3     1  UNL1        0.2573
      3 N         141.2533  142.1032  159.2783 N.pl3   1  UNL1       -0.2136
      4 C         142.7425  142.0574  159.4520 C.2     1  UNL1        0.3356
      5 N         143.0614  142.5192  160.8430 N.2     1  UNL1       -0.0599
      6 H         140.7577  141.8552  158.4646 H       1  UNL1        0.2924
      7 F         145.3135  144.2151  166.1741 F       1  UNL1       -0.2042
      8 C         144.4274  143.8739  165.0128 C.ar    1  UNL1        0.1401
      9 C         144.1797  142.4385  164.6548 C.ar    1  UNL1        0.0295
     10 C         143.2937  142.0973  163.4936 C.ar    1  UNL1        0.0025
     11 C         142.6553  143.1915  162.6904 C.ar    1  UNL1        0.0298
     12 C         142.9030  144.6269  163.0484 C.ar    1  UNL1        0.0025
     13 C         143.7891  144.9681  164.2096 C.ar    1  UNL1        0.0295
     14 C         140.6624  143.2528  162.4580 C.ar    1  UNL1        0.0298
     15 C         140.3430  142.4072  163.6550 C.ar    1  UNL1        0.0025
     16 C         139.2362  142.8097  164.5839 C.ar    1  UNL1        0.0295
     17 C         138.4486  144.0578  164.3157 C.ar    1  UNL1        0.1401
     18 F         137.3417  144.4604  165.2446 F       1  UNL1       -0.2042
     19 C         138.7679  144.9035  163.1187 C.ar    1  UNL1        0.0295
     20 C         139.8748  144.5010  162.1898 C.ar    1  UNL1        0.0025
     21 C         143.7380  141.6257  158.4163 C.ar    1  UNL1        0.1819
     22 C         143.6501  140.2531  157.8178 C.ar    1  UNL1        0.1255
     23 N         144.6455  139.8213  156.7821 N.ar    1  UNL1       -0.2389
     24 C         145.7290  140.7621  156.3450 C.ar    1  UNL1        0.1195
     25 C         145.8169  142.1347  156.9436 C.ar    1  UNL1        0.1198
     26 N         144.8214  142.5665  157.9792 N.ar    1  UNL1       -0.2333
@<TRIPOS>BOND
     1     7     8    1
     2     8     9   ar
     3     9    10   ar
     4    10    11   ar
     5    11     1    1
     6     1    14    1
     7    14    15   ar
     8    15    16   ar
     9    16    17   ar
    10    17    18    1
    11    17    19   ar
    12    19    20   ar
    13     1     2    1
    14     2     3    1
    15     3     4    1
    16     4    21    1
    17    21    22   ar
    18    22    23   ar
    19    23    24   ar
    20    24    25   ar
    21    25    26   ar
    22     4     5    2
    23    11    12   ar
    24    12    13   ar
    25    13     8   ar
    26     5     1    1
    27    20    14   ar
    28    26    21   ar
    29     3     6    1
