@<TRIPOS>MOLECULE
*****
 39 43 0 0 0
SMALL
GASTEIGER

@<TRIPOS>ATOM
      1 C         141.9085  138.6704  165.1191 C.3     1  UNL1        0.0017
      2 C         141.7803  137.3930  164.3435 C.3     1  UNL1        0.0001
      3 C         140.8245  137.3082  163.1906 C.3     1  UNL1        0.0000
      4 C         139.3531  137.4855  163.4216 C.3     1  UNL1        0.0000
      5 C         138.5257  138.2523  162.4328 C.3     1  UNL1        0.0014
      6 C         138.9439  139.6306  162.0139 C.3     1  UNL1        0.0171
      7 C         138.1678  140.8251  162.4837 C.3     1  UNL1        0.0685
      8 N         137.5286  140.8179  163.8407 N.3     1  UNL1       -0.2982
      9 H         137.0311  141.7032  163.9365 H       1  UNL1        0.1232
     10 O         142.9119  140.9817  170.2238 O.2     1  UNL1       -0.2726
     11 C         142.0639  141.1368  168.9963 C.2     1  UNL1        0.2497
     12 C         142.3592  142.2315  168.0142 C.3     1  UNL1        0.1129
     13 C         141.5112  142.3867  166.7867 C.2     1  UNL1       -0.0198
     14 C         140.3679  141.4471  166.5412 C.2     1  UNL1       -0.0134
     15 C         140.0726  140.3525  167.5233 C.2     1  UNL1        0.0468
     16 N         140.9206  140.1973  168.7509 N.am    1  UNL1       -0.1836
     17 C         138.9294  139.4130  167.2779 C.3     1  UNL1        0.0443
     18 C         138.0814  139.5681  166.0504 C.3     1  UNL1        0.0221
     19 C         138.3767  140.6628  165.0683 C.3     1  UNL1        0.0588
     20 C         139.5199  141.6023  165.3137 C.3     1  UNL1        0.0427
     21 C         143.2463  139.0964  165.6469 C.3     1  UNL1        0.0212
     22 C         144.4992  138.6963  164.9256 C.3     1  UNL1        0.0870
     23 N         145.0830  139.5989  163.8793 N.pl3   1  UNL1       -0.3328
     24 H         146.0579  139.6326  163.7467 H       1  UNL1        0.1468
     25 C         144.1813  140.4501  163.0352 C.ar    1  UNL1        0.0431
     26 C         143.9436  141.8848  163.4031 C.ar    1  UNL1        0.0045
     27 C         143.0420  142.7360  162.5590 C.ar    1  UNL1        0.0561
     28 N         142.3781  142.1525  161.3470 N.ar    1  UNL1       -0.2499
     29 C         142.6158  140.7179  160.9792 C.ar    1  UNL1        0.0829
     30 C         141.9518  140.1344  159.7672 C.ar    1  UNL1        0.0305
     31 C         142.1896  138.6998  159.3994 C.ar    1  UNL1        0.0592
     32 CL        141.5256  138.1164  158.1875 Cl      1  UNL1       -0.0822
     33 C         143.0912  137.8486  160.2435 C.ar    1  UNL1        0.0115
     34 C         143.7551  138.4320  161.4554 C.ar    1  UNL1        0.0036
     35 C         143.5174  139.8667  161.8233 C.ar    1  UNL1        0.0305
     36 C         142.8043  144.1706  162.9268 C.3     1  UNL1        0.0455
     37 C         143.4682  144.7540  164.1387 C.3     1  UNL1        0.0066
     38 C         144.3698  143.9028  164.9828 C.3     1  UNL1        0.0052
     39 C         144.6076  142.4682  164.6150 C.3     1  UNL1        0.0288
@<TRIPOS>BOND
     1    10    11    2
     2    11    12    1
     3    12    13    1
     4    13    14    2
     5    14    15    1
     6    15    16    2
     7    15    17    1
     8    17    18    1
     9    18    19    1
    10    19     8    1
    11     8     7    1
    12     7     6    1
    13     6     5    1
    14     5     4    1
    15     4     3    1
    16     3     2    1
    17     2     1    1
    18     1    21    1
    19    21    22    1
    20    22    23    1
    21    23    25    1
    22    25    26   ar
    23    26    27   ar
    24    27    28   ar
    25    28    29   ar
    26    29    30   ar
    27    30    31   ar
    28    31    32    1
    29    31    33   ar
    30    33    34   ar
    31    34    35   ar
    32    27    36    1
    33    36    37    1
    34    37    38    1
    35    38    39    1
    36    19    20    1
    37    16    11    1
    38    35    25   ar
    39    20    14    1
    40    39    26    1
    41    35    29   ar
    42     8     9    1
    43    23    24    1
@<TRIPOS>MOLECULE
*****
 39 43 0 0 0
SMALL
GASTEIGER

@<TRIPOS>ATOM
      1 C         143.4868  144.8747  163.7484 C.3     1  UNL1        0.0017
      2 C         142.0638  145.3362  163.8584 C.3     1  UNL1        0.0001
      3 C         141.1157  145.1228  162.7158 C.3     1  UNL1        0.0000
      4 C         139.6389  145.0539  162.9694 C.3     1  UNL1        0.0000
      5 C         139.1229  144.9595  164.3747 C.3     1  UNL1        0.0014
      6 C         137.9476  144.0804  164.6846 C.3     1  UNL1        0.0171
      7 C         137.6806  142.8633  163.8495 C.3     1  UNL1        0.0685
      8 N         138.6877  141.7529  163.7987 N.3     1  UNL1       -0.2982
      9 H         138.2174  140.9474  163.3859 H       1  UNL1        0.1232
     10 O         143.2057  140.0098  170.6030 O.2     1  UNL1       -0.2726
     11 C         142.5537  140.4892  169.3402 C.2     1  UNL1        0.2497
     12 C         143.1593  141.6232  168.5671 C.3     1  UNL1        0.1129
     13 C         142.5072  142.1027  167.3043 C.2     1  UNL1       -0.0198
     14 C         141.2495  141.4483  166.8144 C.2     1  UNL1       -0.0134
     15 C         140.6439  140.3144  167.5873 C.2     1  UNL1        0.0468
     16 N         141.2960  139.8348  168.8502 N.am    1  UNL1       -0.1836
     17 C         139.3863  139.6599  167.0974 C.3     1  UNL1        0.0443
     18 C         138.7342  140.1394  165.8345 C.3     1  UNL1        0.0221
     19 C         139.3398  141.2733  165.0616 C.3     1  UNL1        0.0588
     20 C         140.5975  141.9277  165.5515 C.3     1  UNL1        0.0427
     21 C         144.0149  143.8395  164.6967 C.3     1  UNL1        0.0212
     22 C         145.1417  142.9429  164.2766 C.3     1  UNL1        0.0870
     23 N         145.0063  142.0939  163.0474 N.pl3   1  UNL1       -0.3328
     24 H         145.7692  141.9913  162.4335 H       1  UNL1        0.1468
     25 C         143.7087  141.4013  162.7535 C.ar    1  UNL1        0.0431
     26 C         143.2580  140.2570  163.6123 C.ar    1  UNL1        0.0045
     27 C         141.9604  139.5644  163.3184 C.ar    1  UNL1        0.0561
     28 N         141.1134  140.0160  162.1656 N.ar    1  UNL1       -0.2499
     29 C         141.5641  141.1602  161.3069 C.ar    1  UNL1        0.0829
     30 C         140.7172  141.6119  160.1541 C.ar    1  UNL1        0.0305
     31 C         141.1679  142.7561  159.2953 C.ar    1  UNL1        0.0592
     32 CL        140.3210  143.2077  158.1426 Cl      1  UNL1       -0.0822
     33 C         142.4656  143.4487  159.5892 C.ar    1  UNL1        0.0115
     34 C         143.3125  142.9971  160.7419 C.ar    1  UNL1        0.0036
     35 C         142.8618  141.8529  161.6008 C.ar    1  UNL1        0.0305
     36 C         141.5096  138.4201  164.1772 C.3     1  UNL1        0.0455
     37 C         142.3566  137.9686  165.3299 C.3     1  UNL1        0.0066
     38 C         143.6542  138.6612  165.6238 C.3     1  UNL1        0.0052
     39 C         144.1049  139.8054  164.7650 C.3     1  UNL1        0.0288
@<TRIPOS>BOND
     1    10    11    2
     2    11    12    1
     3    12    13    1
     4    13    14    2
     5    14    15    1
     6    15    16    2
     7    15    17    1
     8    17    18    1
     9    18    19    1
    10    19     8    1
    11     8     7    1
    12     7     6    1
    13     6     5    1
    14     5     4    1
    15     4     3    1
    16     3     2    1
    17     2     1    1
    18     1    21    1
    19    21    22    1
    20    22    23    1
    21    23    25    1
    22    25    26   ar
    23    26    27   ar
    24    27    28   ar
    25    28    29   ar
    26    29    30   ar
    27    30    31   ar
    28    31    32    1
    29    31    33   ar
    30    33    34   ar
    31    34    35   ar
    32    27    36    1
    33    36    37    1
    34    37    38    1
    35    38    39    1
    36    19    20    1
    37    16    11    1
    38    35    25   ar
    39    20    14    1
    40    39    26    1
    41    35    29   ar
    42     8     9    1
    43    23    24    1
@<TRIPOS>MOLECULE
*****
 39 43 0 0 0
SMALL
GASTEIGER

@<TRIPOS>ATOM
      1 C         139.0578  138.1386  163.4065 C.3     1  UNL1        0.0017
      2 C         140.2922  137.2970  163.2724 C.3     1  UNL1        0.0001
      3 C         141.3288  137.3080  164.3565 C.3     1  UNL1        0.0000
      4 C         141.6730  138.5916  165.0521 C.3     1  UNL1        0.0000
      5 C         142.8064  138.6321  166.0338 C.3     1  UNL1        0.0014
      6 C         144.2210  138.7204  165.5429 C.3     1  UNL1        0.0171
      7 C         144.6263  139.8303  164.6189 C.3     1  UNL1        0.0685
      8 N         144.9770  139.5281  163.1921 N.3     1  UNL1       -0.2982
      9 H         145.5429  140.3076  162.8566 H       1  UNL1        0.1232
     10 O         138.6210  139.5978  157.7748 O.2     1  UNL1       -0.2726
     11 C         139.7088  139.8099  158.7857 C.2     1  UNL1        0.2497
     12 C         139.8792  141.1519  159.4337 C.3     1  UNL1        0.1129
     13 C         140.9669  141.3640  160.4445 C.2     1  UNL1       -0.0198
     14 C         141.8842  140.2340  160.8074 C.2     1  UNL1       -0.0134
     15 C         141.7138  138.8920  160.1595 C.2     1  UNL1        0.0468
     16 N         140.6261  138.6799  159.1486 N.am    1  UNL1       -0.1836
     17 C         142.6311  137.7620  160.5224 C.3     1  UNL1        0.0443
     18 C         143.7188  137.9740  161.5332 C.3     1  UNL1        0.0221
     19 C         143.8892  139.3160  162.1812 C.3     1  UNL1        0.0588
     20 C         142.9719  140.4460  161.8183 C.3     1  UNL1        0.0427
     21 C         138.9136  139.3929  162.5965 C.3     1  UNL1        0.0212
     22 C         137.6536  140.2020  162.6848 C.3     1  UNL1        0.0870
     23 N         137.4673  141.1798  163.8070 N.pl3   1  UNL1       -0.3328
     24 H         136.5617  141.3930  164.1289 H       1  UNL1        0.1468
     25 C         138.6609  141.8328  164.4386 C.ar    1  UNL1        0.0431
     26 C         139.2993  143.0220  163.7840 C.ar    1  UNL1        0.0045
     27 C         140.4929  143.6750  164.4157 C.ar    1  UNL1        0.0561
     28 N         141.0481  143.1388  165.7019 N.ar    1  UNL1       -0.2499
     29 C         140.4097  141.9497  166.3564 C.ar    1  UNL1        0.0829
     30 C         140.9649  141.4135  167.6427 C.ar    1  UNL1        0.0305
     31 C         140.3265  140.2244  168.2972 C.ar    1  UNL1        0.0592
     32 CL        140.8817  139.6883  169.5834 Cl      1  UNL1       -0.0822
     33 C         139.1329  139.5714  167.6656 C.ar    1  UNL1        0.0115
     34 C         138.5777  140.1076  166.3794 C.ar    1  UNL1        0.0036
     35 C         139.2161  141.2967  165.7248 C.ar    1  UNL1        0.0305
     36 C         141.1313  144.8641  163.7611 C.3     1  UNL1        0.0455
     37 C         140.5761  145.4002  162.4750 C.3     1  UNL1        0.0066
     38 C         139.3825  144.7472  161.8433 C.3     1  UNL1        0.0052
     39 C         138.7441  143.5581  162.4979 C.3     1  UNL1        0.0288
@<TRIPOS>BOND
     1    10    11    2
     2    11    12    1
     3    12    13    1
     4    13    14    2
     5    14    15    1
     6    15    16    2
     7    15    17    1
     8    17    18    1
     9    18    19    1
    10    19     8    1
    11     8     7    1
    12     7     6    1
    13     6     5    1
    14     5     4    1
    15     4     3    1
    16     3     2    1
    17     2     1    1
    18     1    21    1
    19    21    22    1
    20    22    23    1
    21    23    25    1
    22    25    26   ar
    23    26    27   ar
    24    27    28   ar
    25    28    29   ar
    26    29    30   ar
    27    30    31   ar
    28    31    32    1
    29    31    33   ar
    30    33    34   ar
    31    34    35   ar
    32    27    36    1
    33    36    37    1
    34    37    38    1
    35    38    39    1
    36    19    20    1
    37    16    11    1
    38    35    25   ar
    39    20    14    1
    40    39    26    1
    41    35    29   ar
    42     8     9    1
    43    23    24    1
@<TRIPOS>MOLECULE
*****
 39 43 0 0 0
SMALL
GASTEIGER

@<TRIPOS>ATOM
      1 C         139.2957  144.6877  165.1658 C.3     1  UNL1        0.0017
      2 C         140.5937  144.1014  164.6953 C.3     1  UNL1        0.0001
      3 C         141.4508  144.8589  163.7250 C.3     1  UNL1        0.0000
      4 C         142.9318  144.9505  163.9453 C.3     1  UNL1        0.0000
      5 C         143.8765  144.6885  162.8099 C.3     1  UNL1        0.0014
      6 C         144.4994  143.3333  162.6501 C.3     1  UNL1        0.0171
      7 C         144.7290  142.4669  163.8528 C.3     1  UNL1        0.0685
      8 N         144.0149  141.1538  163.9786 N.3     1  UNL1       -0.2982
      9 H         143.2781  141.1506  163.2733 H       1  UNL1        0.1232
     10 O         139.8688  140.1983  171.1652 O.2     1  UNL1       -0.2726
     11 C         140.5121  140.5806  169.8652 C.2     1  UNL1        0.2497
     12 C         140.2257  141.9192  169.2518 C.3     1  UNL1        0.1129
     13 C         140.8690  142.3015  167.9518 C.2     1  UNL1       -0.0198
     14 C         141.7987  141.3453  167.2652 C.2     1  UNL1       -0.0134
     15 C         142.0850  140.0068  167.8786 C.2     1  UNL1        0.0468
     16 N         141.4418  139.6244  169.1787 N.am    1  UNL1       -0.1836
     17 C         143.0147  139.0506  167.1921 C.3     1  UNL1        0.0443
     18 C         143.6580  139.4329  165.8921 C.3     1  UNL1        0.0221
     19 C         143.3716  140.7714  165.2787 C.3     1  UNL1        0.0588
     20 C         142.4419  141.7276  165.9652 C.3     1  UNL1        0.0427
     21 C         138.0146  144.3242  164.4754 C.3     1  UNL1        0.0212
     22 C         137.9794  144.1900  162.9818 C.3     1  UNL1        0.0870
     23 N         137.8930  142.8309  162.3528 N.pl3   1  UNL1       -0.3328
     24 H         137.0619  142.5461  161.9085 H       1  UNL1        0.1468
     25 C         139.0728  141.9058  162.4009 C.ar    1  UNL1        0.0431
     26 C         139.1510  140.8444  163.4580 C.ar    1  UNL1        0.0045
     27 C         140.3309  139.9194  163.5061 C.ar    1  UNL1        0.0561
     28 N         141.4324  140.0557  162.4970 N.ar    1  UNL1       -0.2499
     29 C         141.3541  141.1171  161.4400 C.ar    1  UNL1        0.0829
     30 C         142.4557  141.2534  160.4310 C.ar    1  UNL1        0.0305
     31 C         142.3774  142.3148  159.3740 C.ar    1  UNL1        0.0592
     32 CL        143.4789  142.4511  158.3651 Cl      1  UNL1       -0.0822
     33 C         141.1976  143.2399  159.3259 C.ar    1  UNL1        0.0115
     34 C         140.0961  143.1036  160.3349 C.ar    1  UNL1        0.0036
     35 C         140.1743  142.0421  161.3920 C.ar    1  UNL1        0.0305
     36 C         140.4091  138.8580  164.5631 C.3     1  UNL1        0.0455
     37 C         139.3076  138.7217  165.5720 C.3     1  UNL1        0.0066
     38 C         138.1278  139.6468  165.5239 C.3     1  UNL1        0.0052
     39 C         138.0495  140.7081  164.4669 C.3     1  UNL1        0.0288
@<TRIPOS>BOND
     1    10    11    2
     2    11    12    1
     3    12    13    1
     4    13    14    2
     5    14    15    1
     6    15    16    2
     7    15    17    1
     8    17    18    1
     9    18    19    1
    10    19     8    1
    11     8     7    1
    12     7     6    1
    13     6     5    1
    14     5     4    1
    15     4     3    1
    16     3     2    1
    17     2     1    1
    18     1    21    1
    19    21    22    1
    20    22    23    1
    21    23    25    1
    22    25    26   ar
    23    26    27   ar
    24    27    28   ar
    25    28    29   ar
    26    29    30   ar
    27    30    31   ar
    28    31    32    1
    29    31    33   ar
    30    33    34   ar
    31    34    35   ar
    32    27    36    1
    33    36    37    1
    34    37    38    1
    35    38    39    1
    36    19    20    1
    37    16    11    1
    38    35    25   ar
    39    20    14    1
    40    39    26    1
    41    35    29   ar
    42     8     9    1
    43    23    24    1
@<TRIPOS>MOLECULE
*****
 39 43 0 0 0
SMALL
GASTEIGER

@<TRIPOS>ATOM
      1 C         141.3047  138.8072  163.9541 C.3     1  UNL1        0.0017
      2 C         142.5732  139.2690  164.6081 C.3     1  UNL1        0.0001
      3 C         143.0843  140.6567  164.3571 C.3     1  UNL1        0.0000
      4 C         143.6513  141.4631  165.4877 C.3     1  UNL1        0.0000
      5 C         143.5686  142.9605  165.4562 C.3     1  UNL1        0.0014
      6 C         144.0588  143.7136  164.2551 C.3     1  UNL1        0.0171
      7 C         143.2241  144.8121  163.6666 C.3     1  UNL1        0.0685
      8 N         143.1395  144.9743  162.1778 N.3     1  UNL1       -0.2982
      9 H         143.0548  145.9742  161.9948 H       1  UNL1        0.1232
     10 O         137.3773  140.1381  158.5504 O.2     1  UNL1       -0.2726
     11 C         138.4757  140.8131  159.3171 C.2     1  UNL1        0.2497
     12 C         139.3035  140.0273  160.2904 C.3     1  UNL1        0.1129
     13 C         140.4019  140.7024  161.0571 C.2     1  UNL1       -0.0198
     14 C         140.6723  142.1633  160.8507 C.2     1  UNL1       -0.0134
     15 C         139.8445  142.9491  159.8775 C.2     1  UNL1        0.0468
     16 N         138.7461  142.2740  159.1107 N.am    1  UNL1       -0.1836
     17 C         140.1150  144.4100  159.6710 C.3     1  UNL1        0.0443
     18 C         141.2133  145.0851  160.4378 C.3     1  UNL1        0.0221
     19 C         142.0411  144.2992  161.4110 C.3     1  UNL1        0.0588
     20 C         141.7707  142.8383  161.6174 C.3     1  UNL1        0.0427
     21 C         140.3114  137.9967  164.7328 C.3     1  UNL1        0.0212
     22 C         138.8461  138.2977  164.6216 C.3     1  UNL1        0.0870
     23 N         138.2146  139.3010  165.5408 N.pl3   1  UNL1       -0.3328
     24 H         137.3726  139.0841  166.0024 H       1  UNL1        0.1468
     25 C         138.8662  140.6348  165.7564 C.ar    1  UNL1        0.0431
     26 C         138.6257  141.7527  164.7856 C.ar    1  UNL1        0.0045
     27 C         139.2773  143.0865  165.0012 C.ar    1  UNL1        0.0561
     28 N         140.1693  143.3023  166.1878 N.ar    1  UNL1       -0.2499
     29 C         140.4097  142.1844  167.1586 C.ar    1  UNL1        0.0829
     30 C         141.3017  142.4003  168.3451 C.ar    1  UNL1        0.0305
     31 C         141.5421  141.2824  169.3159 C.ar    1  UNL1        0.0592
     32 CL        142.4341  141.4983  170.5023 Cl      1  UNL1       -0.0822
     33 C         140.8906  139.9486  169.1002 C.ar    1  UNL1        0.0115
     34 C         139.9986  139.7327  167.9138 C.ar    1  UNL1        0.0036
     35 C         139.7582  140.8507  166.9429 C.ar    1  UNL1        0.0305
     36 C         139.0369  144.2043  164.0304 C.3     1  UNL1        0.0455
     37 C         138.1449  143.9884  162.8440 C.3     1  UNL1        0.0066
     38 C         137.4934  142.6547  162.6283 C.3     1  UNL1        0.0052
     39 C         137.7338  141.5368  163.5991 C.3     1  UNL1        0.0288
@<TRIPOS>BOND
     1    10    11    2
     2    11    12    1
     3    12    13    1
     4    13    14    2
     5    14    15    1
     6    15    16    2
     7    15    17    1
     8    17    18    1
     9    18    19    1
    10    19     8    1
    11     8     7    1
    12     7     6    1
    13     6     5    1
    14     5     4    1
    15     4     3    1
    16     3     2    1
    17     2     1    1
    18     1    21    1
    19    21    22    1
    20    22    23    1
    21    23    25    1
    22    25    26   ar
    23    26    27   ar
    24    27    28   ar
    25    28    29   ar
    26    29    30   ar
    27    30    31   ar
    28    31    32    1
    29    31    33   ar
    30    33    34   ar
    31    34    35   ar
    32    27    36    1
    33    36    37    1
    34    37    38    1
    35    38    39    1
    36    19    20    1
    37    16    11    1
    38    35    25   ar
    39    20    14    1
    40    39    26    1
    41    35    29   ar
    42     8     9    1
    43    23    24    1
@<TRIPOS>MOLECULE
*****
 39 43 0 0 0
SMALL
GASTEIGER

@<TRIPOS>ATOM
      1 C         141.1283  137.2541  163.3210 C.3     1  UNL1        0.0017
      2 C         141.5478  138.0750  162.1378 C.3     1  UNL1        0.0001
      3 C         141.6127  139.5696  162.2469 C.3     1  UNL1        0.0000
      4 C         141.3727  140.4212  161.0356 C.3     1  UNL1        0.0000
      5 C         142.4954  140.7003  160.0807 C.3     1  UNL1        0.0014
      6 C         143.0624  142.0849  159.9738 C.3     1  UNL1        0.0171
      7 C         144.5258  142.3162  160.2079 C.3     1  UNL1        0.0685
      8 N         144.9903  142.9457  161.4877 N.3     1  UNL1       -0.2982
      9 H         146.0080  142.8786  161.4965 H       1  UNL1        0.1232
     10 O         142.7942  138.8252  168.4123 O.2     1  UNL1       -0.2726
     11 C         143.2746  139.3602  167.0959 C.2     1  UNL1        0.2497
     12 C         143.9613  138.4493  166.1217 C.3     1  UNL1        0.1129
     13 C         144.4417  138.9842  164.8053 C.2     1  UNL1       -0.0198
     14 C         144.2355  140.4300  164.4630 C.2     1  UNL1       -0.0134
     15 C         143.5489  141.3409  165.4371 C.2     1  UNL1        0.0468
     16 N         143.0684  140.8059  166.7535 N.am    1  UNL1       -0.1836
     17 C         143.3427  142.7866  165.0947 C.3     1  UNL1        0.0443
     18 C         143.8231  143.3216  163.7783 C.3     1  UNL1        0.0221
     19 C         144.5098  142.4107  162.8042 C.3     1  UNL1        0.0588
     20 C         144.7160  140.9650  163.1466 C.3     1  UNL1        0.0427
     21 C         140.6344  137.9301  164.5656 C.3     1  UNL1        0.0212
     22 C         139.2656  137.6198  165.0949 C.3     1  UNL1        0.0870
     23 N         138.2934  138.7315  165.3578 N.pl3   1  UNL1       -0.3328
     24 H         137.3716  138.5241  165.6346 H       1  UNL1        0.1468
     25 C         138.7256  140.1590  165.1989 C.ar    1  UNL1        0.0431
     26 C         138.5469  140.8546  163.8820 C.ar    1  UNL1        0.0045
     27 C         138.9792  142.2822  163.7231 C.ar    1  UNL1        0.0561
     28 N         139.5900  143.0142  164.8812 N.ar    1  UNL1       -0.2499
     29 C         139.7686  142.3186  166.1981 C.ar    1  UNL1        0.0829
     30 C         140.3794  143.0506  167.3562 C.ar    1  UNL1        0.0305
     31 C         140.5580  142.3551  168.6730 C.ar    1  UNL1        0.0592
     32 CL        141.1689  143.0871  169.8311 Cl      1  UNL1       -0.0822
     33 C         140.1258  140.9275  168.8319 C.ar    1  UNL1        0.0115
     34 C         139.5150  140.1955  167.6739 C.ar    1  UNL1        0.0036
     35 C         139.3364  140.8910  166.3569 C.ar    1  UNL1        0.0305
     36 C         138.8006  142.9777  162.4062 C.3     1  UNL1        0.0455
     37 C         138.1897  142.2457  161.2482 C.3     1  UNL1        0.0066
     38 C         137.7575  140.8181  161.4071 C.3     1  UNL1        0.0052
     39 C         137.9361  140.1226  162.7239 C.3     1  UNL1        0.0288
@<TRIPOS>BOND
     1    10    11    2
     2    11    12    1
     3    12    13    1
     4    13    14    2
     5    14    15    1
     6    15    16    2
     7    15    17    1
     8    17    18    1
     9    18    19    1
    10    19     8    1
    11     8     7    1
    12     7     6    1
    13     6     5    1
    14     5     4    1
    15     4     3    1
    16     3     2    1
    17     2     1    1
    18     1    21    1
    19    21    22    1
    20    22    23    1
    21    23    25    1
    22    25    26   ar
    23    26    27   ar
    24    27    28   ar
    25    28    29   ar
    26    29    30   ar
    27    30    31   ar
    28    31    32    1
    29    31    33   ar
    30    33    34   ar
    31    34    35   ar
    32    27    36    1
    33    36    37    1
    34    37    38    1
    35    38    39    1
    36    19    20    1
    37    16    11    1
    38    35    25   ar
    39    20    14    1
    40    39    26    1
    41    35    29   ar
    42     8     9    1
    43    23    24    1
@<TRIPOS>MOLECULE
*****
 39 43 0 0 0
SMALL
GASTEIGER

@<TRIPOS>ATOM
      1 C         141.0561  138.1172  164.3354 C.3     1  UNL1        0.0017
      2 C         142.2024  138.0584  165.3011 C.3     1  UNL1        0.0001
      3 C         143.1200  139.2357  165.4487 C.3     1  UNL1        0.0000
      4 C         144.5153  139.1723  164.9019 C.3     1  UNL1        0.0000
      5 C         144.8931  140.0039  163.7119 C.3     1  UNL1        0.0014
      6 C         145.6391  141.2911  163.9030 C.3     1  UNL1        0.0171
      7 C         144.8984  142.5953  163.8968 C.3     1  UNL1        0.0685
      8 N         143.4148  142.6163  164.1169 N.3     1  UNL1       -0.2982
      9 H         143.1945  141.8196  164.7145 H       1  UNL1        0.1232
     10 O         138.6216  143.4553  157.3293 O.2     1  UNL1       -0.2726
     11 C         139.5548  143.5222  158.5017 C.2     1  UNL1        0.2497
     12 C         140.3609  144.7629  158.7489 C.3     1  UNL1        0.1129
     13 C         141.2940  144.8299  159.9213 C.2     1  UNL1       -0.0198
     14 C         141.4212  143.6561  160.8467 C.2     1  UNL1       -0.0134
     15 C         140.6152  142.4155  160.5995 C.2     1  UNL1        0.0468
     16 N         139.6820  142.3485  159.4270 N.am    1  UNL1       -0.1836
     17 C         140.7424  141.2418  161.5248 C.3     1  UNL1        0.0443
     18 C         141.6755  141.3087  162.6973 C.3     1  UNL1        0.0221
     19 C         142.4815  142.5493  162.9444 C.3     1  UNL1        0.0588
     20 C         142.3544  143.7231  162.0191 C.3     1  UNL1        0.0427
     21 C         139.6652  137.8055  164.8025 C.3     1  UNL1        0.0212
     22 C         138.5381  138.7410  164.4790 C.3     1  UNL1        0.0870
     23 N         138.1415  139.8048  165.4594 N.pl3   1  UNL1       -0.3328
     24 H         137.3164  139.7049  165.9872 H       1  UNL1        0.1468
     25 C         139.0019  141.0207  165.6357 C.ar    1  UNL1        0.0431
     26 C         138.8272  142.2013  164.7270 C.ar    1  UNL1        0.0045
     27 C         139.6877  143.4172  164.9033 C.ar    1  UNL1        0.0561
     28 N         140.7229  143.4526  165.9883 N.ar    1  UNL1       -0.2499
     29 C         140.8976  142.2720  166.8970 C.ar    1  UNL1        0.0829
     30 C         141.9327  142.3073  167.9820 C.ar    1  UNL1        0.0305
     31 C         142.1074  141.1267  168.8907 C.ar    1  UNL1        0.0592
     32 CL        143.1425  141.1621  169.9756 Cl      1  UNL1       -0.0822
     33 C         141.2469  139.9108  168.7144 C.ar    1  UNL1        0.0115
     34 C         140.2118  139.8755  167.6294 C.ar    1  UNL1        0.0036
     35 C         140.0371  141.0561  166.7207 C.ar    1  UNL1        0.0305
     36 C         139.5131  144.5978  163.9946 C.3     1  UNL1        0.0455
     37 C         138.4779  144.5624  162.9097 C.3     1  UNL1        0.0066
     38 C         137.6175  143.3465  162.7334 C.3     1  UNL1        0.0052
     39 C         137.7921  142.1659  163.6420 C.3     1  UNL1        0.0288
@<TRIPOS>BOND
     1    10    11    2
     2    11    12    1
     3    12    13    1
     4    13    14    2
     5    14    15    1
     6    15    16    2
     7    15    17    1
     8    17    18    1
     9    18    19    1
    10    19     8    1
    11     8     7    1
    12     7     6    1
    13     6     5    1
    14     5     4    1
    15     4     3    1
    16     3     2    1
    17     2     1    1
    18     1    21    1
    19    21    22    1
    20    22    23    1
    21    23    25    1
    22    25    26   ar
    23    26    27   ar
    24    27    28   ar
    25    28    29   ar
    26    29    30   ar
    27    30    31   ar
    28    31    32    1
    29    31    33   ar
    30    33    34   ar
    31    34    35   ar
    32    27    36    1
    33    36    37    1
    34    37    38    1
    35    38    39    1
    36    19    20    1
    37    16    11    1
    38    35    25   ar
    39    20    14    1
    40    39    26    1
    41    35    29   ar
    42     8     9    1
    43    23    24    1
@<TRIPOS>MOLECULE
*****
 39 43 0 0 0
SMALL
GASTEIGER

@<TRIPOS>ATOM
      1 C         138.0170  140.8939  163.0446 C.3     1  UNL1        0.0017
      2 C         137.5962  142.3251  163.2016 C.3     1  UNL1        0.0001
      3 C         137.6917  142.9922  164.5416 C.3     1  UNL1        0.0000
      4 C         138.4804  144.2589  164.6943 C.3     1  UNL1        0.0000
      5 C         139.3139  144.7655  163.5546 C.3     1  UNL1        0.0014
      6 C         140.8091  144.7907  163.6721 C.3     1  UNL1        0.0171
      7 C         141.6468  143.9326  162.7711 C.3     1  UNL1        0.0685
      8 N         142.5298  142.8701  163.3554 N.3     1  UNL1       -0.2982
      9 H         142.4714  142.0638  162.7335 H       1  UNL1        0.1232
     10 O         139.9919  139.6066  170.6121 O.2     1  UNL1       -0.2726
     11 C         140.2455  140.1121  169.2228 C.2     1  UNL1        0.2497
     12 C         139.2294  139.8818  168.1437 C.3     1  UNL1        0.1129
     13 C         139.4830  140.3873  166.7544 C.2     1  UNL1       -0.0198
     14 C         140.7528  141.1232  166.4442 C.2     1  UNL1       -0.0134
     15 C         141.7689  141.3535  167.5233 C.2     1  UNL1        0.0468
     16 N         141.5153  140.8480  168.9126 N.am    1  UNL1       -0.1836
     17 C         143.0387  142.0893  167.2131 C.3     1  UNL1        0.0443
     18 C         143.2923  142.5949  165.8238 C.3     1  UNL1        0.0221
     19 C         142.2762  142.3646  164.7448 C.3     1  UNL1        0.0588
     20 C         141.0064  141.6287  165.0550 C.3     1  UNL1        0.0427
     21 C         137.8670  140.2092  161.7184 C.3     1  UNL1        0.0212
     22 C         137.6292  138.7293  161.6611 C.3     1  UNL1        0.0870
     23 N         138.7669  137.7978  161.3643 N.pl3   1  UNL1       -0.3328
     24 H         138.5935  136.8397  161.2188 H       1  UNL1        0.1468
     25 C         140.1688  138.3262  161.2892 C.ar    1  UNL1        0.0431
     26 C         140.7093  138.8359  159.9860 C.ar    1  UNL1        0.0045
     27 C         142.1112  139.3643  159.9109 C.ar    1  UNL1        0.0561
     28 N         142.9724  139.3830  161.1389 N.ar    1  UNL1       -0.2499
     29 C         142.4319  138.8733  162.4419 C.ar    1  UNL1        0.0829
     30 C         143.2932  138.8919  163.6699 C.ar    1  UNL1        0.0305
     31 C         142.7526  138.3822  164.9730 C.ar    1  UNL1        0.0592
     32 CL        143.6139  138.4009  166.2009 Cl      1  UNL1       -0.0822
     33 C         141.3508  137.8538  165.0481 C.ar    1  UNL1        0.0115
     34 C         140.4895  137.8351  163.8202 C.ar    1  UNL1        0.0036
     35 C         141.0300  138.3449  162.5171 C.ar    1  UNL1        0.0305
     36 C         142.6517  139.8740  158.6079 C.3     1  UNL1        0.0455
     37 C         141.7904  139.8554  157.3800 C.3     1  UNL1        0.0066
     38 C         140.3886  139.3270  157.4551 C.3     1  UNL1        0.0052
     39 C         139.8480  138.8173  158.7581 C.3     1  UNL1        0.0288
@<TRIPOS>BOND
     1    10    11    2
     2    11    12    1
     3    12    13    1
     4    13    14    2
     5    14    15    1
     6    15    16    2
     7    15    17    1
     8    17    18    1
     9    18    19    1
    10    19     8    1
    11     8     7    1
    12     7     6    1
    13     6     5    1
    14     5     4    1
    15     4     3    1
    16     3     2    1
    17     2     1    1
    18     1    21    1
    19    21    22    1
    20    22    23    1
    21    23    25    1
    22    25    26   ar
    23    26    27   ar
    24    27    28   ar
    25    28    29   ar
    26    29    30   ar
    27    30    31   ar
    28    31    32    1
    29    31    33   ar
    30    33    34   ar
    31    34    35   ar
    32    27    36    1
    33    36    37    1
    34    37    38    1
    35    38    39    1
    36    19    20    1
    37    16    11    1
    38    35    25   ar
    39    20    14    1
    40    39    26    1
    41    35    29   ar
    42     8     9    1
    43    23    24    1
@<TRIPOS>MOLECULE
*****
 39 43 0 0 0
SMALL
GASTEIGER

@<TRIPOS>ATOM
      1 C         140.2527  142.8925  165.1164 C.3     1  UNL1        0.0017
      2 C         140.7523  142.3313  166.4146 C.3     1  UNL1        0.0001
      3 C         141.5646  141.0703  166.4235 C.3     1  UNL1        0.0000
      4 C         141.6690  140.2366  165.1809 C.3     1  UNL1        0.0000
      5 C         142.5523  139.0244  165.1630 C.3     1  UNL1        0.0014
      6 C         144.0287  139.1689  165.3851 C.3     1  UNL1        0.0171
      7 C         144.9396  139.4336  164.2232 C.3     1  UNL1        0.0685
      8 N         145.5067  140.8061  164.0123 N.3     1  UNL1       -0.2982
      9 H         146.0805  141.0164  164.8290 H       1  UNL1        0.1232
     10 O         139.9370  146.6568  161.8913 O.2     1  UNL1       -0.2726
     11 C         140.8560  145.4876  162.0875 C.2     1  UNL1        0.2497
     12 C         140.8003  144.3232  161.1435 C.3     1  UNL1        0.1129
     13 C         141.7192  143.1541  161.3397 C.2     1  UNL1       -0.0198
     14 C         142.6940  143.1493  162.4798 C.2     1  UNL1       -0.0134
     15 C         142.7497  144.3136  163.4238 C.2     1  UNL1        0.0468
     16 N         141.8307  145.4829  163.2276 N.am    1  UNL1       -0.1836
     17 C         143.7244  144.3089  164.5639 C.3     1  UNL1        0.0443
     18 C         144.6434  143.1397  164.7601 C.3     1  UNL1        0.0221
     19 C         144.5877  141.9754  163.8161 C.3     1  UNL1        0.0588
     20 C         143.6129  141.9801  162.6760 C.3     1  UNL1        0.0427
     21 C         138.8822  143.4969  165.0385 C.3     1  UNL1        0.0212
     22 C         138.1629  143.5579  163.7236 C.3     1  UNL1        0.0870
     23 N         137.3442  142.3889  163.2617 N.pl3   1  UNL1       -0.3328
     24 H         136.3628  142.4154  163.3354 H       1  UNL1        0.1468
     25 C         138.0208  141.1795  162.6875 C.ar    1  UNL1        0.0431
     26 C         138.3239  140.0018  163.5657 C.ar    1  UNL1        0.0045
     27 C         139.0005  138.7925  162.9916 C.ar    1  UNL1        0.0561
     28 N         139.3740  138.7608  161.5391 N.ar    1  UNL1       -0.2499
     29 C         139.0709  139.9385  160.6609 C.ar    1  UNL1        0.0829
     30 C         139.4445  139.9068  159.2085 C.ar    1  UNL1        0.0305
     31 C         139.1414  141.0844  158.3303 C.ar    1  UNL1        0.0592
     32 CL        139.5149  141.0527  156.8779 Cl      1  UNL1       -0.0822
     33 C         138.4648  142.2938  158.9045 C.ar    1  UNL1        0.0115
     34 C         138.0913  142.3255  160.3568 C.ar    1  UNL1        0.0036
     35 C         138.3943  141.1478  161.2351 C.ar    1  UNL1        0.0305
     36 C         139.3036  137.6148  163.8698 C.3     1  UNL1        0.0455
     37 C         138.9301  137.6466  165.3221 C.3     1  UNL1        0.0066
     38 C         138.2535  138.8559  165.8963 C.3     1  UNL1        0.0052
     39 C         137.9504  140.0335  165.0181 C.3     1  UNL1        0.0288
@<TRIPOS>BOND
     1    10    11    2
     2    11    12    1
     3    12    13    1
     4    13    14    2
     5    14    15    1
     6    15    16    2
     7    15    17    1
     8    17    18    1
     9    18    19    1
    10    19     8    1
    11     8     7    1
    12     7     6    1
    13     6     5    1
    14     5     4    1
    15     4     3    1
    16     3     2    1
    17     2     1    1
    18     1    21    1
    19    21    22    1
    20    22    23    1
    21    23    25    1
    22    25    26   ar
    23    26    27   ar
    24    27    28   ar
    25    28    29   ar
    26    29    30   ar
    27    30    31   ar
    28    31    32    1
    29    31    33   ar
    30    33    34   ar
    31    34    35   ar
    32    27    36    1
    33    36    37    1
    34    37    38    1
    35    38    39    1
    36    19    20    1
    37    16    11    1
    38    35    25   ar
    39    20    14    1
    40    39    26    1
    41    35    29   ar
    42     8     9    1
    43    23    24    1
