@<TRIPOS>MOLECULE
*****
 27 30 0 0 0
SMALL
GASTEIGER

@<TRIPOS>ATOM
      1 C         141.8769  140.0452  165.2222 C.ar    1  UNL1        0.1016
      2 C         143.1237  139.2310  165.4024 C.ar    1  UNL1        0.0240
      3 C         144.3558  139.5616  164.6133 C.ar    1  UNL1        0.0404
      4 C         144.3410  140.7063  163.6441 C.ar    1  UNL1        0.1639
      5 N         145.3949  141.2648  162.7343 N.ar    1  UNL1       -0.2234
      6 C         144.7993  142.4241  161.9919 C.ar    1  UNL1        0.1197
      7 C         143.3774  142.5822  162.4429 C.ar    1  UNL1        0.1037
      8 N         143.0942  141.5205  163.4640 N.ar    1  UNL1       -0.2107
      9 N         141.8621  141.1900  164.2530 N.ar    1  UNL1       -0.1638
     10 C         139.2713  139.8746  168.2109 C.ar    1  UNL1        0.1808
     11 C         138.1804  139.0537  167.5894 C.ar    1  UNL1        0.0519
     12 C         138.3216  138.5633  166.1789 C.ar    1  UNL1        0.0045
     13 C         139.5538  138.8939  165.3898 C.ar    1  UNL1        0.0018
     14 C         140.6447  139.7147  166.0113 C.ar    1  UNL1        0.0237
     15 C         140.5034  140.2050  167.4218 C.ar    1  UNL1        0.0535
     16 C         140.1366  141.3226  170.1868 C.3     1  UNL1        0.3254
     17 S         139.1300  140.3649  169.6214 S.O     1  UNL1        0.0581
     18 O         137.9823  139.8976  170.4665 O.co2   1  UNL1       -0.6774
     19 C         142.4088  143.6197  161.9578 C.ar    1  UNL1        0.0236
     20 C         141.5197  144.3306  162.9346 C.ar    1  UNL1        0.0018
     21 C         140.5511  145.3681  162.4496 C.ar    1  UNL1        0.0045
     22 C         140.4715  145.6948  160.9878 C.ar    1  UNL1        0.0519
     23 C         141.3606  144.9839  160.0110 C.ar    1  UNL1        0.1808
     24 C         142.3292  143.9464  160.4960 C.ar    1  UNL1        0.0535
     25 S         141.2810  145.3106  158.5491 S.O     1  UNL1        0.0581
     26 C         140.1281  144.8102  157.7305 C.3     1  UNL1        0.3254
     27 O         142.3545  146.1377  157.9059 O.co2   1  UNL1       -0.6774
@<TRIPOS>UNITY_ATOM_ATTR
17 1
charge 1
18 1
charge -1
25 1
charge 1
27 1
charge -1
@<TRIPOS>BOND
     1    16    17    1
     2    17    18    2
     3    17    10    1
     4    10    11   ar
     5    11    12   ar
     6    12    13   ar
     7    13    14   ar
     8    14     1    1
     9     1     2   ar
    10     2     3   ar
    11     3     4   ar
    12     4     5   ar
    13     5     6   ar
    14     6     7   ar
    15     7    19    1
    16    19    20   ar
    17    20    21   ar
    18    21    22   ar
    19    22    23   ar
    20    23    25    1
    21    25    26    1
    22    25    27    2
    23    23    24   ar
    24     7     8   ar
    25     8     9   ar
    26    14    15   ar
    27    15    10   ar
    28     9     1   ar
    29     8     4   ar
    30    24    19   ar
@<TRIPOS>MOLECULE
*****
 27 30 0 0 0
SMALL
GASTEIGER

@<TRIPOS>ATOM
      1 C         139.6010  139.3434  166.5796 C.ar    1  UNL1        0.1016
      2 C         138.6639  138.2386  166.1909 C.ar    1  UNL1        0.0240
      3 C         138.8348  137.5385  164.8754 C.ar    1  UNL1        0.0404
      4 C         139.9426  137.9432  163.9486 C.ar    1  UNL1        0.1639
      5 N         140.3551  137.4395  162.5972 N.ar    1  UNL1       -0.2234
      6 C         141.5472  138.2331  162.1508 C.ar    1  UNL1        0.1197
      7 C         141.8713  139.2272  163.2263 C.ar    1  UNL1        0.1037
      8 N         140.8797  139.0480  164.3374 N.ar    1  UNL1       -0.2107
      9 N         140.7089  139.7482  165.6529 N.ar    1  UNL1       -0.1638
     10 C         140.0899  141.9512  169.5310 C.ar    1  UNL1        0.1808
     11 C         139.0887  141.4440  170.5263 C.ar    1  UNL1        0.0519
     12 C         138.2583  140.2366  170.2059 C.ar    1  UNL1        0.0045
     13 C         138.4291  139.5364  168.8904 C.ar    1  UNL1        0.0018
     14 C         139.4302  140.0436  167.8952 C.ar    1  UNL1        0.0237
     15 C         140.2606  141.2511  168.2155 C.ar    1  UNL1        0.0535
     16 C         142.4113  143.0359  169.9608 C.3     1  UNL1        0.3254
     17 S         140.9203  143.1587  169.8513 S.O     1  UNL1        0.0581
     18 O         140.2598  144.4888  170.0621 O.co2   1  UNL1       -0.6774
     19 C         142.9907  140.2253  163.1961 C.ar    1  UNL1        0.0236
     20 C         144.3838  139.8010  163.5557 C.ar    1  UNL1        0.0018
     21 C         145.5031  140.7991  163.5254 C.ar    1  UNL1        0.0045
     22 C         145.2294  142.2214  163.1356 C.ar    1  UNL1        0.0519
     23 C         143.8363  142.6457  162.7760 C.ar    1  UNL1        0.1808
     24 C         142.7170  141.6476  162.8062 C.ar    1  UNL1        0.0535
     25 S         143.5626  144.0681  162.3861 S.O     1  UNL1        0.0581
     26 C         143.9050  145.1834  163.3289 C.3     1  UNL1        0.3254
     27 O         142.9464  144.3752  161.0534 O.co2   1  UNL1       -0.6774
@<TRIPOS>UNITY_ATOM_ATTR
17 1
charge 1
18 1
charge -1
25 1
charge 1
27 1
charge -1
@<TRIPOS>BOND
     1    16    17    1
     2    17    18    2
     3    17    10    1
     4    10    11   ar
     5    11    12   ar
     6    12    13   ar
     7    13    14   ar
     8    14     1    1
     9     1     2   ar
    10     2     3   ar
    11     3     4   ar
    12     4     5   ar
    13     5     6   ar
    14     6     7   ar
    15     7    19    1
    16    19    20   ar
    17    20    21   ar
    18    21    22   ar
    19    22    23   ar
    20    23    25    1
    21    25    26    1
    22    25    27    2
    23    23    24   ar
    24     7     8   ar
    25     8     9   ar
    26    14    15   ar
    27    15    10   ar
    28     9     1   ar
    29     8     4   ar
    30    24    19   ar
@<TRIPOS>MOLECULE
*****
 27 30 0 0 0
SMALL
GASTEIGER

@<TRIPOS>ATOM
      1 C         139.8628  139.3312  164.9200 C.ar    1  UNL1        0.1016
      2 C         139.3176  137.9847  164.5462 C.ar    1  UNL1        0.0240
      3 C         138.6357  137.7924  163.2241 C.ar    1  UNL1        0.0404
      4 C         138.4990  138.9466  162.2758 C.ar    1  UNL1        0.1639
      5 N         137.8810  139.0586  160.9135 N.ar    1  UNL1       -0.2234
      6 C         138.0443  140.4743  160.4455 C.ar    1  UNL1        0.1197
      7 C         138.7632  141.2372  161.5184 C.ar    1  UNL1        0.1037
      8 N         139.0442  140.2930  162.6496 N.ar    1  UNL1       -0.2107
      9 N         139.7261  140.4853  163.9717 N.ar    1  UNL1       -0.1638
     10 C         140.4460  140.2107  168.7457 C.ar    1  UNL1        0.1808
     11 C         141.9085  139.9083  168.8864 C.ar    1  UNL1        0.0519
     12 C         142.6891  139.4135  167.7049 C.ar    1  UNL1        0.0045
     13 C         142.0071  139.2211  166.3828 C.ar    1  UNL1        0.0018
     14 C         140.5447  139.5235  166.2421 C.ar    1  UNL1        0.0237
     15 C         139.7642  140.0183  167.4236 C.ar    1  UNL1        0.0535
     16 C         139.7654  142.1432  170.3433 C.3     1  UNL1        0.3254
     17 S         139.6654  140.7055  169.9272 S.O     1  UNL1        0.0581
     18 O         138.7850  139.7627  170.6926 O.co2   1  UNL1       -0.6774
     19 C         139.1357  142.6893  161.4689 C.ar    1  UNL1        0.0236
     20 C         138.7784  143.5946  162.6102 C.ar    1  UNL1        0.0018
     21 C         139.1509  145.0468  162.5607 C.ar    1  UNL1        0.0045
     22 C         139.8807  145.5937  161.3699 C.ar    1  UNL1        0.0519
     23 C         140.2381  144.6884  160.2285 C.ar    1  UNL1        0.1808
     24 C         139.8656  143.2363  160.2780 C.ar    1  UNL1        0.0535
     25 S         140.9679  145.2353  159.0375 S.O     1  UNL1        0.0581
     26 C         140.2221  146.0091  157.9911 C.3     1  UNL1        0.3254
     27 O         142.4436  145.0085  158.8931 O.co2   1  UNL1       -0.6774
@<TRIPOS>UNITY_ATOM_ATTR
17 1
charge 1
18 1
charge -1
25 1
charge 1
27 1
charge -1
@<TRIPOS>BOND
     1    16    17    1
     2    17    18    2
     3    17    10    1
     4    10    11   ar
     5    11    12   ar
     6    12    13   ar
     7    13    14   ar
     8    14     1    1
     9     1     2   ar
    10     2     3   ar
    11     3     4   ar
    12     4     5   ar
    13     5     6   ar
    14     6     7   ar
    15     7    19    1
    16    19    20   ar
    17    20    21   ar
    18    21    22   ar
    19    22    23   ar
    20    23    25    1
    21    25    26    1
    22    25    27    2
    23    23    24   ar
    24     7     8   ar
    25     8     9   ar
    26    14    15   ar
    27    15    10   ar
    28     9     1   ar
    29     8     4   ar
    30    24    19   ar
@<TRIPOS>MOLECULE
*****
 27 30 0 0 0
SMALL
GASTEIGER

@<TRIPOS>ATOM
      1 C         142.5678  142.6294  162.6655 C.ar    1  UNL1        0.1016
      2 C         143.9695  142.3636  162.2022 C.ar    1  UNL1        0.0240
      3 C         144.7681  141.2572  162.8250 C.ar    1  UNL1        0.0404
      4 C         144.1650  140.4164  163.9110 C.ar    1  UNL1        0.1639
      5 N         144.7056  139.2651  164.7062 N.ar    1  UNL1       -0.2234
      6 C         143.6380  138.8193  165.6609 C.ar    1  UNL1        0.1197
      7 C         142.4376  139.6951  165.4557 C.ar    1  UNL1        0.1037
      8 N         142.7634  140.6822  164.3743 N.ar    1  UNL1       -0.2107
      9 N         141.9648  141.7887  163.7515 N.ar    1  UNL1       -0.1638
     10 C         141.1047  145.1309  159.9540 C.ar    1  UNL1        0.1808
     11 C         140.1718  145.9489  160.7971 C.ar    1  UNL1        0.0519
     12 C         140.0376  145.6604  162.2630 C.ar    1  UNL1        0.0045
     13 C         140.8363  144.5538  162.8858 C.ar    1  UNL1        0.0018
     14 C         141.7691  143.7359  162.0427 C.ar    1  UNL1        0.0237
     15 C         141.9033  144.0244  160.5768 C.ar    1  UNL1        0.0535
     16 C         140.1699  144.9733  157.5351 C.3     1  UNL1        0.3254
     17 S         141.2389  145.4194  158.4882 S.O     1  UNL1        0.0581
     18 O         142.4420  146.1540  157.9754 O.co2   1  UNL1       -0.6774
     19 C         141.1394  139.6005  166.2012 C.ar    1  UNL1        0.0236
     20 C         139.9231  139.0447  165.5217 C.ar    1  UNL1        0.0018
     21 C         138.6250  138.9501  166.2671 C.ar    1  UNL1        0.0045
     22 C         138.5430  139.4112  167.6921 C.ar    1  UNL1        0.0519
     23 C         139.7593  139.9669  168.3716 C.ar    1  UNL1        0.1808
     24 C         141.0575  140.0615  167.6262 C.ar    1  UNL1        0.0535
     25 S         139.6773  140.4280  169.7967 S.O     1  UNL1        0.0581
     26 C         140.9241  140.5323  170.6241 C.3     1  UNL1        0.3254
     27 O         138.3486  140.7849  170.3943 O.co2   1  UNL1       -0.6774
@<TRIPOS>UNITY_ATOM_ATTR
17 1
charge 1
18 1
charge -1
25 1
charge 1
27 1
charge -1
@<TRIPOS>BOND
     1    16    17    1
     2    17    18    2
     3    17    10    1
     4    10    11   ar
     5    11    12   ar
     6    12    13   ar
     7    13    14   ar
     8    14     1    1
     9     1     2   ar
    10     2     3   ar
    11     3     4   ar
    12     4     5   ar
    13     5     6   ar
    14     6     7   ar
    15     7    19    1
    16    19    20   ar
    17    20    21   ar
    18    21    22   ar
    19    22    23   ar
    20    23    25    1
    21    25    26    1
    22    25    27    2
    23    23    24   ar
    24     7     8   ar
    25     8     9   ar
    26    14    15   ar
    27    15    10   ar
    28     9     1   ar
    29     8     4   ar
    30    24    19   ar
@<TRIPOS>MOLECULE
*****
 27 30 0 0 0
SMALL
GASTEIGER

@<TRIPOS>ATOM
      1 C         140.1322  139.1627  164.9230 C.ar    1  UNL1        0.1016
      2 C         139.4592  137.8533  164.6359 C.ar    1  UNL1        0.0240
      3 C         138.8924  137.5842  163.2734 C.ar    1  UNL1        0.0404
      4 C         138.9986  138.6245  162.1981 C.ar    1  UNL1        0.1639
      5 N         138.5377  138.6433  160.7707 N.ar    1  UNL1       -0.2234
      6 C         138.9258  139.9644  160.1757 C.ar    1  UNL1        0.1197
      7 C         139.6266  140.7620  161.2353 C.ar    1  UNL1        0.1037
      8 N         139.6716  139.9339  162.4851 N.ar    1  UNL1       -0.2107
      9 N         140.2383  140.2030  163.8476 N.ar    1  UNL1       -0.1638
     10 C         140.3821  140.2364  168.7354 C.ar    1  UNL1        0.1808
     11 C         141.8325  139.9702  169.0104 C.ar    1  UNL1        0.0519
     12 C         142.7161  139.4348  167.9229 C.ar    1  UNL1        0.0045
     13 C         142.1493  139.1657  166.5604 C.ar    1  UNL1        0.0018
     14 C         140.6990  139.4319  166.2855 C.ar    1  UNL1        0.0237
     15 C         139.8154  139.9672  167.3730 C.ar    1  UNL1        0.0535
     16 C         139.7050  142.1648  170.3394 C.3     1  UNL1        0.3254
     17 S         139.4985  140.7717  169.8229 S.O     1  UNL1        0.0581
     18 O         138.4085  139.9140  170.3940 O.co2   1  UNL1       -0.6774
     19 C         140.1844  142.1450  161.0734 C.ar    1  UNL1        0.0236
     20 C         139.5835  143.0833  160.0692 C.ar    1  UNL1        0.0018
     21 C         140.1414  144.4663  159.9073 C.ar    1  UNL1        0.0045
     22 C         141.3001  144.9110  160.7496 C.ar    1  UNL1        0.0519
     23 C         141.9010  143.9726  161.7538 C.ar    1  UNL1        0.1808
     24 C         141.3432  142.5897  161.9157 C.ar    1  UNL1        0.0535
     25 S         143.0599  144.4173  162.5962 S.O     1  UNL1        0.0581
     26 C         142.8145  145.1285  163.8938 C.3     1  UNL1        0.3254
     27 O         144.4640  144.1507  162.1408 O.co2   1  UNL1       -0.6774
@<TRIPOS>UNITY_ATOM_ATTR
17 1
charge 1
18 1
charge -1
25 1
charge 1
27 1
charge -1
@<TRIPOS>BOND
     1    16    17    1
     2    17    18    2
     3    17    10    1
     4    10    11   ar
     5    11    12   ar
     6    12    13   ar
     7    13    14   ar
     8    14     1    1
     9     1     2   ar
    10     2     3   ar
    11     3     4   ar
    12     4     5   ar
    13     5     6   ar
    14     6     7   ar
    15     7    19    1
    16    19    20   ar
    17    20    21   ar
    18    21    22   ar
    19    22    23   ar
    20    23    25    1
    21    25    26    1
    22    25    27    2
    23    23    24   ar
    24     7     8   ar
    25     8     9   ar
    26    14    15   ar
    27    15    10   ar
    28     9     1   ar
    29     8     4   ar
    30    24    19   ar
@<TRIPOS>MOLECULE
*****
 27 30 0 0 0
SMALL
GASTEIGER

@<TRIPOS>ATOM
      1 C         142.9216  142.2051  166.0800 C.ar    1  UNL1        0.1016
      2 C         144.1026  143.1266  166.1568 C.ar    1  UNL1        0.0240
      3 C         144.4863  143.9547  164.9664 C.ar    1  UNL1        0.0404
      4 C         143.6890  143.8613  163.6993 C.ar    1  UNL1        0.1639
      5 N         143.8269  144.5495  162.3736 N.ar    1  UNL1       -0.2234
      6 C         142.7311  144.0533  161.4776 C.ar    1  UNL1        0.1197
      7 C         141.9159  143.0585  162.2495 C.ar    1  UNL1        0.1037
      8 N         142.5079  142.9398  163.6226 N.ar    1  UNL1       -0.2107
      9 N         142.1242  142.1117  164.8129 N.ar    1  UNL1       -0.1638
     10 C         141.3955  141.1723  169.5949 C.ar    1  UNL1        0.1808
     11 C         141.7702  139.7208  169.6512 C.ar    1  UNL1        0.0519
     12 C         142.5287  139.0976  168.5171 C.ar    1  UNL1        0.0045
     13 C         142.9125  139.9257  167.3267 C.ar    1  UNL1        0.0018
     14 C         142.5378  141.3770  167.2705 C.ar    1  UNL1        0.0237
     15 C         141.7793  142.0003  168.4046 C.ar    1  UNL1        0.0535
     16 C         139.8890  143.0782  170.5158 C.3     1  UNL1        0.3254
     17 S         140.6370  141.7955  170.7290 S.O     1  UNL1        0.0581
     18 O         140.6265  141.1362  172.0763 O.co2   1  UNL1       -0.6774
     19 C         140.7189  142.3131  161.7381 C.ar    1  UNL1        0.0236
     20 C         139.6342  143.0473  161.0071 C.ar    1  UNL1        0.0018
     21 C         138.4371  142.3020  160.4957 C.ar    1  UNL1        0.0045
     22 C         138.3247  140.8225  160.7153 C.ar    1  UNL1        0.0519
     23 C         139.4094  140.0882  161.4463 C.ar    1  UNL1        0.1808
     24 C         140.6064  140.8336  161.9577 C.ar    1  UNL1        0.0535
     25 S         139.2970  138.6086  161.6659 S.O     1  UNL1        0.0581
     26 C         137.9744  138.0030  162.0319 C.3     1  UNL1        0.3254
     27 O         140.5073  137.7346  161.5195 O.co2   1  UNL1       -0.6774
@<TRIPOS>UNITY_ATOM_ATTR
17 1
charge 1
18 1
charge -1
25 1
charge 1
27 1
charge -1
@<TRIPOS>BOND
     1    16    17    1
     2    17    18    2
     3    17    10    1
     4    10    11   ar
     5    11    12   ar
     6    12    13   ar
     7    13    14   ar
     8    14     1    1
     9     1     2   ar
    10     2     3   ar
    11     3     4   ar
    12     4     5   ar
    13     5     6   ar
    14     6     7   ar
    15     7    19    1
    16    19    20   ar
    17    20    21   ar
    18    21    22   ar
    19    22    23   ar
    20    23    25    1
    21    25    26    1
    22    25    27    2
    23    23    24   ar
    24     7     8   ar
    25     8     9   ar
    26    14    15   ar
    27    15    10   ar
    28     9     1   ar
    29     8     4   ar
    30    24    19   ar
@<TRIPOS>MOLECULE
*****
 27 30 0 0 0
SMALL
GASTEIGER

@<TRIPOS>ATOM
      1 C         140.0939  142.7678  165.4888 C.ar    1  UNL1        0.1016
      2 C         139.3749  144.0825  165.4233 C.ar    1  UNL1        0.0240
      3 C         139.3816  144.8785  164.1520 C.ar    1  UNL1        0.0404
      4 C         140.1073  144.3597  162.9461 C.ar    1  UNL1        0.1639
      5 N         140.2872  144.9183  161.5656 N.ar    1  UNL1       -0.2234
      6 C         141.1175  143.9487  160.7779 C.ar    1  UNL1        0.1197
      7 C         141.4507  142.7909  161.6716 C.ar    1  UNL1        0.1037
      8 N         140.8264  143.0450  163.0116 N.ar    1  UNL1       -0.2107
      9 N         140.8197  142.2490  164.2829 N.ar    1  UNL1       -0.1638
     10 C         140.6945  141.7452  169.2761 C.ar    1  UNL1        0.1808
     11 C         140.0740  140.3797  169.3029 C.ar    1  UNL1        0.0519
     12 C         139.4602  139.8103  168.0583 C.ar    1  UNL1        0.0045
     13 C         139.4668  140.6064  166.7869 C.ar    1  UNL1        0.0018
     14 C         140.0873  141.9717  166.7602 C.ar    1  UNL1        0.0237
     15 C         140.7011  142.5411  168.0048 C.ar    1  UNL1        0.0535
     16 C         142.6228  143.0336  170.4474 C.3     1  UNL1        0.3254
     17 S         141.3083  142.3146  170.5207 S.O     1  UNL1        0.0581
     18 O         140.6078  142.1650  171.8385 O.co2   1  UNL1       -0.6774
     19 C         142.2653  141.5900  161.2919 C.ar    1  UNL1        0.0236
     20 C         143.4931  141.2375  162.0781 C.ar    1  UNL1        0.0018
     21 C         144.3077  140.0365  161.6984 C.ar    1  UNL1        0.0045
     22 C         143.8945  139.1880  160.5326 C.ar    1  UNL1        0.0519
     23 C         142.6666  139.5405  159.7463 C.ar    1  UNL1        0.1808
     24 C         141.8521  140.7415  160.1260 C.ar    1  UNL1        0.0535
     25 S         142.2533  138.6920  158.5804 S.O     1  UNL1        0.0581
     26 C         140.7980  138.4855  158.2817 C.3     1  UNL1        0.3254
     27 O         143.2954  138.0502  157.7132 O.co2   1  UNL1       -0.6774
@<TRIPOS>UNITY_ATOM_ATTR
17 1
charge 1
18 1
charge -1
25 1
charge 1
27 1
charge -1
@<TRIPOS>BOND
     1    16    17    1
     2    17    18    2
     3    17    10    1
     4    10    11   ar
     5    11    12   ar
     6    12    13   ar
     7    13    14   ar
     8    14     1    1
     9     1     2   ar
    10     2     3   ar
    11     3     4   ar
    12     4     5   ar
    13     5     6   ar
    14     6     7   ar
    15     7    19    1
    16    19    20   ar
    17    20    21   ar
    18    21    22   ar
    19    22    23   ar
    20    23    25    1
    21    25    26    1
    22    25    27    2
    23    23    24   ar
    24     7     8   ar
    25     8     9   ar
    26    14    15   ar
    27    15    10   ar
    28     9     1   ar
    29     8     4   ar
    30    24    19   ar
@<TRIPOS>MOLECULE
*****
 27 30 0 0 0
SMALL
GASTEIGER

@<TRIPOS>ATOM
      1 C         139.8499  142.9699  165.5283 C.ar    1  UNL1        0.1016
      2 C         138.9556  144.1706  165.6207 C.ar    1  UNL1        0.0240
      3 C         138.7639  145.0566  164.4256 C.ar    1  UNL1        0.0404
      4 C         139.4665  144.7420  163.1382 C.ar    1  UNL1        0.1639
      5 N         139.4706  145.4268  161.8036 N.ar    1  UNL1       -0.2234
      6 C         140.3675  144.6494  160.8865 C.ar    1  UNL1        0.1197
      7 C         140.9177  143.4841  161.6543 C.ar    1  UNL1        0.1037
      8 N         140.3608  143.5413  163.0459 N.ar    1  UNL1       -0.2107
      9 N         140.5525  142.6553  164.2409 N.ar    1  UNL1       -0.1638
     10 C         140.8043  141.7613  169.1860 C.ar    1  UNL1        0.1808
     11 C         140.4251  140.3117  169.1135 C.ar    1  UNL1        0.0519
     12 C         139.8543  139.7483  167.8460 C.ar    1  UNL1        0.0045
     13 C         139.6625  140.6344  166.6509 C.ar    1  UNL1        0.0018
     14 C         140.0416  142.0838  166.7234 C.ar    1  UNL1        0.0237
     15 C         140.6125  142.6473  167.9909 C.ar    1  UNL1        0.0535
     16 C         142.6956  143.0360  170.4302 C.3     1  UNL1        0.3254
     17 S         141.3751  142.3247  170.4535 S.O     1  UNL1        0.0581
     18 O         140.6256  142.1769  171.7443 O.co2   1  UNL1       -0.6774
     19 C         141.8594  142.4441  161.1236 C.ar    1  UNL1        0.0236
     20 C         143.1596  142.8577  160.5004 C.ar    1  UNL1        0.0018
     21 C         144.1013  141.8177  159.9698 C.ar    1  UNL1        0.0045
     22 C         143.7429  140.3641  160.0622 C.ar    1  UNL1        0.0519
     23 C         142.4426  139.9506  160.6854 C.ar    1  UNL1        0.1808
     24 C         141.5009  140.9905  161.2161 C.ar    1  UNL1        0.0535
     25 S         142.0841  138.4969  160.7779 S.O     1  UNL1        0.0581
     26 C         143.0108  137.4588  160.2179 C.3     1  UNL1        0.3254
     27 O         140.7989  138.0814  161.4304 O.co2   1  UNL1       -0.6774
@<TRIPOS>UNITY_ATOM_ATTR
17 1
charge 1
18 1
charge -1
25 1
charge 1
27 1
charge -1
@<TRIPOS>BOND
     1    16    17    1
     2    17    18    2
     3    17    10    1
     4    10    11   ar
     5    11    12   ar
     6    12    13   ar
     7    13    14   ar
     8    14     1    1
     9     1     2   ar
    10     2     3   ar
    11     3     4   ar
    12     4     5   ar
    13     5     6   ar
    14     6     7   ar
    15     7    19    1
    16    19    20   ar
    17    20    21   ar
    18    21    22   ar
    19    22    23   ar
    20    23    25    1
    21    25    26    1
    22    25    27    2
    23    23    24   ar
    24     7     8   ar
    25     8     9   ar
    26    14    15   ar
    27    15    10   ar
    28     9     1   ar
    29     8     4   ar
    30    24    19   ar
@<TRIPOS>MOLECULE
*****
 27 30 0 0 0
SMALL
GASTEIGER

@<TRIPOS>ATOM
      1 C         139.8724  143.0156  166.1886 C.ar    1  UNL1        0.1016
      2 C         139.1264  144.3156  166.1304 C.ar    1  UNL1        0.0240
      3 C         138.4992  144.7634  164.8436 C.ar    1  UNL1        0.0404
      4 C         138.6180  143.9112  163.6149 C.ar    1  UNL1        0.1639
      5 N         138.1082  144.0909  162.2156 N.ar    1  UNL1       -0.2234
      6 C         138.5392  142.9020  161.4090 C.ar    1  UNL1        0.1197
      7 C         139.3153  141.9875  162.3098 C.ar    1  UNL1        0.1037
      8 N         139.3640  142.6112  163.6731 N.ar    1  UNL1       -0.2107
      9 N         139.9912  142.1634  164.9599 N.ar    1  UNL1       -0.1638
     10 C         141.8375  140.8006  168.8310 C.ar    1  UNL1        0.1808
     11 C         141.7543  141.6720  170.0492 C.ar    1  UNL1        0.0519
     12 C         141.0437  142.9912  169.9804 C.ar    1  UNL1        0.0045
     13 C         140.4165  143.4391  168.6935 C.ar    1  UNL1        0.0018
     14 C         140.4997  142.5677  167.4755 C.ar    1  UNL1        0.0237
     15 C         141.2102  141.2485  167.5442 C.ar    1  UNL1        0.0535
     16 C         142.5936  138.7204  170.1917 C.3     1  UNL1        0.3254
     17 S         142.5480  139.4814  168.8997 S.O     1  UNL1        0.0581
     18 O         143.2130  138.9230  167.6766 O.co2   1  UNL1       -0.6774
     19 C         139.9341  140.6789  161.9163 C.ar    1  UNL1        0.0236
     20 C         139.0657  139.5499  161.4461 C.ar    1  UNL1        0.0018
     21 C         139.6845  138.2414  161.0527 C.ar    1  UNL1        0.0045
     22 C         141.1717  138.0618  161.1294 C.ar    1  UNL1        0.0519
     23 C         142.0401  139.1909  161.5996 C.ar    1  UNL1        0.1808
     24 C         141.4213  140.4994  161.9931 C.ar    1  UNL1        0.0535
     25 S         143.5275  139.0114  161.6763 S.O     1  UNL1        0.0581
     26 C         144.4083  140.1811  162.0017 C.3     1  UNL1        0.3254
     27 O         144.1339  137.6621  161.4278 O.co2   1  UNL1       -0.6774
@<TRIPOS>UNITY_ATOM_ATTR
17 1
charge 1
18 1
charge -1
25 1
charge 1
27 1
charge -1
@<TRIPOS>BOND
     1    16    17    1
     2    17    18    2
     3    17    10    1
     4    10    11   ar
     5    11    12   ar
     6    12    13   ar
     7    13    14   ar
     8    14     1    1
     9     1     2   ar
    10     2     3   ar
    11     3     4   ar
    12     4     5   ar
    13     5     6   ar
    14     6     7   ar
    15     7    19    1
    16    19    20   ar
    17    20    21   ar
    18    21    22   ar
    19    22    23   ar
    20    23    25    1
    21    25    26    1
    22    25    27    2
    23    23    24   ar
    24     7     8   ar
    25     8     9   ar
    26    14    15   ar
    27    15    10   ar
    28     9     1   ar
    29     8     4   ar
    30    24    19   ar
