@<TRIPOS>MOLECULE
*****
 27 29 0 0 0
SMALL
GASTEIGER

@<TRIPOS>ATOM
      1 C         139.5362  139.8870  165.5571 C.3     1  UNL1        0.0991
      2 C         139.6947  143.7059  163.1820 C.ar    1  UNL1        0.1330
      3 C         140.8413  142.7404  163.1272 C.ar    1  UNL1        0.0203
      4 C         140.7885  141.4674  163.9189 C.ar    1  UNL1       -0.0023
      5 C         139.5890  141.1600  164.7654 C.ar    1  UNL1       -0.0116
      6 C         138.4424  142.1255  164.8202 C.ar    1  UNL1        0.0272
      7 C         138.4953  143.3984  164.0285 C.ar    1  UNL1        0.1568
      8 F         137.3486  144.3639  164.0834 F       1  UNL1       -0.2028
      9 C         139.8005  146.2518  161.5986 C.3     1  UNL1        0.1817
     10 S         139.7476  144.9789  162.3903 S.O2    1  UNL1        0.0126
     11 O         140.7484  145.5387  163.3573 O.2     1  UNL1       -0.1685
     12 O         138.7468  144.4190  161.4234 O.2     1  UNL1       -0.1685
     13 C         139.9846  139.8748  166.9884 C.2     1  UNL1        0.2311
     14 O         139.0516  139.3998  168.0627 O.2     1  UNL1       -0.2744
     15 N         141.3660  140.3376  167.3456 N.am    1  UNL1       -0.2639
     16 H         141.9784  140.6493  166.6405 H       1  UNL1        0.1567
     17 C         141.8144  140.3254  168.7770 C.ar    1  UNL1        0.1656
     18 N         142.7979  139.3697  169.3847 N.ar    1  UNL1       -0.2224
     19 C         142.9494  139.7204  170.8352 C.ar    1  UNL1        0.1079
     20 C         142.0594  140.8928  171.1240 C.ar    1  UNL1        0.0588
     21 S         141.3580  141.2667  169.8519 S.2     1  UNL1       -0.0508
     22 C         139.0349  138.6263  164.9175 C.3     1  UNL1        0.0135
     23 C         139.1551  138.4387  163.4341 C.3     1  UNL1        0.0008
     24 C         140.3797  137.9791  162.6999 C.3     1  UNL1        0.0000
     25 C         140.0533  137.9342  161.2365 C.3     1  UNL1        0.0000
     26 C         138.6269  138.3659  161.0663 C.3     1  UNL1        0.0000
     27 C         138.0717  138.6778  162.4245 C.3     1  UNL1        0.0000
@<TRIPOS>BOND
     1     9    10    1
     2    10    11    2
     3    10    12    2
     4    10     2    1
     5     2     3   ar
     6     3     4   ar
     7     4     5   ar
     8     5     1    1
     9     1    22    1
    10    22    23    1
    11    23    24    1
    12    24    25    1
    13    25    26    1
    14    26    27    1
    15     1    13    1
    16    13    14    2
    17    13    15   am
    18    15    17    1
    19    17    18   ar
    20    18    19   ar
    21    19    20   ar
    22    20    21   ar
    23     5     6   ar
    24     6     7   ar
    25     7     8    1
    26     7     2   ar
    27    27    23    1
    28    21    17   ar
    29    15    16    1
@<TRIPOS>MOLECULE
*****
 27 29 0 0 0
SMALL
GASTEIGER

@<TRIPOS>ATOM
      1 C         142.9273  140.5024  165.3785 C.3     1  UNL1        0.0991
      2 C         141.0462  143.9245  163.1423 C.ar    1  UNL1        0.1330
      3 C         140.4403  142.5546  163.0648 C.ar    1  UNL1        0.0203
      4 C         141.0673  141.4138  163.8101 C.ar    1  UNL1       -0.0023
      5 C         142.3002  141.6431  164.6331 C.ar    1  UNL1       -0.0116
      6 C         142.9062  143.0130  164.7106 C.ar    1  UNL1        0.0272
      7 C         142.2791  144.1537  163.9652 C.ar    1  UNL1        0.1568
      8 F         142.8851  145.5237  164.0428 F       1  UNL1       -0.2028
      9 C         139.7921  146.2059  161.6515 C.3     1  UNL1        0.1817
     10 S         140.4192  145.0652  162.3969 S.O2    1  UNL1        0.0126
     11 O         139.3992  145.2164  163.4863 O.2     1  UNL1       -0.1685
     12 O         141.4391  144.9140  161.3075 O.2     1  UNL1       -0.1685
     13 C         142.5378  140.2319  166.8015 C.2     1  UNL1        0.2311
     14 O         143.2048  139.1260  167.5645 O.2     1  UNL1       -0.2744
     15 N         141.4813  141.0674  167.4617 N.am    1  UNL1       -0.2639
     16 H         141.0435  141.7933  166.9610 H       1  UNL1        0.1567
     17 C         141.0918  140.7969  168.8848 C.ar    1  UNL1        0.1656
     18 N         140.0199  139.8522  169.3412 N.ar    1  UNL1       -0.2224
     19 C         139.9715  139.8951  170.8398 C.ar    1  UNL1        0.1079
     20 C         141.0136  140.8664  171.3096 C.ar    1  UNL1        0.0588
     21 S         141.7060  141.4237  170.1013 S.2     1  UNL1       -0.0508
     22 C         143.9438  139.6321  164.7008 C.3     1  UNL1        0.0135
     23 C         143.7808  139.2767  163.2526 C.3     1  UNL1        0.0008
     24 C         142.9507  138.1518  162.7088 C.3     1  UNL1        0.0000
     25 C         143.0762  138.1637  161.2141 C.3     1  UNL1        0.0000
     26 C         143.9838  139.2958  160.8341 C.3     1  UNL1        0.0000
     27 C         144.4193  139.9838  162.0940 C.3     1  UNL1        0.0000
@<TRIPOS>BOND
     1     9    10    1
     2    10    11    2
     3    10    12    2
     4    10     2    1
     5     2     3   ar
     6     3     4   ar
     7     4     5   ar
     8     5     1    1
     9     1    22    1
    10    22    23    1
    11    23    24    1
    12    24    25    1
    13    25    26    1
    14    26    27    1
    15     1    13    1
    16    13    14    2
    17    13    15   am
    18    15    17    1
    19    17    18   ar
    20    18    19   ar
    21    19    20   ar
    22    20    21   ar
    23     5     6   ar
    24     6     7   ar
    25     7     8    1
    26     7     2   ar
    27    27    23    1
    28    21    17   ar
    29    15    16    1
@<TRIPOS>MOLECULE
*****
 27 29 0 0 0
SMALL
GASTEIGER

@<TRIPOS>ATOM
      1 C         139.6248  141.8292  163.6001 C.3     1  UNL1        0.0991
      2 C         142.0533  141.9610  167.3862 C.ar    1  UNL1        0.1330
      3 C         142.5311  141.1528  166.2165 C.ar    1  UNL1        0.0203
      4 C         141.7216  141.1088  164.9545 C.ar    1  UNL1       -0.0023
      5 C         140.4343  141.8731  164.8621 C.ar    1  UNL1       -0.0116
      6 C         139.9565  142.6814  166.0319 C.ar    1  UNL1        0.0272
      7 C         140.7660  142.7253  167.2939 C.ar    1  UNL1        0.1568
      8 F         140.2881  143.5337  168.4637 F       1  UNL1       -0.2028
      9 C         143.6723  142.0490  169.9103 C.3     1  UNL1        0.1817
     10 S         142.8628  142.0050  168.6483 S.O2    1  UNL1        0.0126
     11 O         141.8555  141.1233  169.3251 O.2     1  UNL1       -0.1685
     12 O         143.8701  142.8866  167.9715 O.2     1  UNL1       -0.1685
     13 C         139.8232  142.8766  162.5450 C.2     1  UNL1        0.2311
     14 O         139.4063  144.2936  162.8070 O.2     1  UNL1       -0.2744
     15 N         140.4384  142.5073  161.2277 N.am    1  UNL1       -0.2639
     16 H         140.7120  141.5773  161.0557 H       1  UNL1        0.1567
     17 C         140.6368  143.5548  160.1726 C.ar    1  UNL1        0.1656
     18 N         141.6854  144.6273  160.1810 N.ar    1  UNL1       -0.2224
     19 C         141.5181  145.4491  158.9374 C.ar    1  UNL1        0.1079
     20 C         140.3660  144.8845  158.1603 C.ar    1  UNL1        0.0588
     21 S         139.8213  143.7138  158.9237 S.2     1  UNL1       -0.0508
     22 C         138.6169  140.7377  163.3932 C.3     1  UNL1        0.0135
     23 C         138.5620  139.5777  164.3425 C.3     1  UNL1        0.0008
     24 C         139.0539  138.1879  164.0659 C.3     1  UNL1        0.0000
     25 C         138.8015  137.3550  165.2876 C.3     1  UNL1        0.0000
     26 C         138.1536  138.2300  166.3194 C.3     1  UNL1        0.0000
     27 C         138.0055  139.6038  165.7353 C.3     1  UNL1        0.0000
@<TRIPOS>BOND
     1     9    10    1
     2    10    11    2
     3    10    12    2
     4    10     2    1
     5     2     3   ar
     6     3     4   ar
     7     4     5   ar
     8     5     1    1
     9     1    22    1
    10    22    23    1
    11    23    24    1
    12    24    25    1
    13    25    26    1
    14    26    27    1
    15     1    13    1
    16    13    14    2
    17    13    15   am
    18    15    17    1
    19    17    18   ar
    20    18    19   ar
    21    19    20   ar
    22    20    21   ar
    23     5     6   ar
    24     6     7   ar
    25     7     8    1
    26     7     2   ar
    27    27    23    1
    28    21    17   ar
    29    15    16    1
@<TRIPOS>MOLECULE
*****
 27 29 0 0 0
SMALL
GASTEIGER

@<TRIPOS>ATOM
      1 C         143.2188  141.9123  164.5825 C.3     1  UNL1        0.0991
      2 C         141.3206  140.7234  168.4855 C.ar    1  UNL1        0.1330
      3 C         142.1964  139.7523  167.7509 C.ar    1  UNL1        0.0203
      4 C         142.8292  140.1486  166.4499 C.ar    1  UNL1       -0.0023
      5 C         142.5861  141.5160  165.8835 C.ar    1  UNL1       -0.0116
      6 C         141.7102  142.4872  166.6181 C.ar    1  UNL1        0.0272
      7 C         141.0775  142.0909  167.9191 C.ar    1  UNL1        0.1568
      8 F         140.2016  143.0622  168.6537 F       1  UNL1       -0.2028
      9 C         140.0551  139.9308  171.0875 C.3     1  UNL1        0.1817
     10 S         140.6879  140.3271  169.7865 S.O2    1  UNL1        0.0126
     11 O         139.5496  139.6961  169.0407 O.2     1  UNL1       -0.1685
     12 O         141.8261  140.9581  170.5323 O.2     1  UNL1       -0.1685
     13 C         142.6823  143.0830  163.8135 C.2     1  UNL1        0.2311
     14 O         143.4111  144.3939  163.8375 O.2     1  UNL1       -0.2744
     15 N         141.4168  142.9430  163.0203 N.am    1  UNL1       -0.2639
     16 H         140.9385  142.0827  163.0045 H       1  UNL1        0.1567
     17 C         140.8803  144.1138  162.2512 C.ar    1  UNL1        0.1656
     18 N         141.1112  144.3931  160.7957 N.ar    1  UNL1       -0.2224
     19 C         140.3923  145.6627  160.4476 C.ar    1  UNL1        0.1079
     20 C         139.7170  146.1681  161.6880 C.ar    1  UNL1        0.0588
     21 S         140.0186  145.2108  162.8027 S.2     1  UNL1       -0.0508
     22 C         144.3881  141.1379  164.0506 C.3     1  UNL1        0.0135
     23 C         144.1893  140.1455  162.9435 C.3     1  UNL1        0.0008
     24 C         144.3159  140.4253  161.4753 C.3     1  UNL1        0.0000
     25 C         144.0339  139.1518  160.7347 C.3     1  UNL1        0.0000
     26 C         143.7330  138.0848  161.7452 C.3     1  UNL1        0.0000
     27 C         143.8290  138.6989  163.1104 C.3     1  UNL1        0.0000
@<TRIPOS>BOND
     1     9    10    1
     2    10    11    2
     3    10    12    2
     4    10     2    1
     5     2     3   ar
     6     3     4   ar
     7     4     5   ar
     8     5     1    1
     9     1    22    1
    10    22    23    1
    11    23    24    1
    12    24    25    1
    13    25    26    1
    14    26    27    1
    15     1    13    1
    16    13    14    2
    17    13    15   am
    18    15    17    1
    19    17    18   ar
    20    18    19   ar
    21    19    20   ar
    22    20    21   ar
    23     5     6   ar
    24     6     7   ar
    25     7     8    1
    26     7     2   ar
    27    27    23    1
    28    21    17   ar
    29    15    16    1
@<TRIPOS>MOLECULE
*****
 27 29 0 0 0
SMALL
GASTEIGER

@<TRIPOS>ATOM
      1 C         138.9084  140.9944  164.6238 C.3     1  UNL1        0.0991
      2 C         140.2190  141.1083  168.9272 C.ar    1  UNL1        0.1330
      3 C         139.4536  139.9278  168.4073 C.ar    1  UNL1        0.0203
      4 C         139.0167  139.8898  166.9728 C.ar    1  UNL1       -0.0023
      5 C         139.3453  141.0324  166.0582 C.ar    1  UNL1       -0.0116
      6 C         140.1107  142.2129  166.5781 C.ar    1  UNL1        0.0272
      7 C         140.5475  142.2509  168.0126 C.ar    1  UNL1        0.1568
      8 F         141.3130  143.4316  168.5325 F       1  UNL1       -0.2028
      9 C         141.0927  141.1843  171.7962 C.3     1  UNL1        0.1817
     10 S         140.6558  141.1463  170.3617 S.O2    1  UNL1        0.0126
     11 O         141.8696  140.3367  170.0135 O.2     1  UNL1       -0.1685
     12 O         139.4421  141.9560  170.7099 O.2     1  UNL1       -0.1685
     13 C         138.8625  142.2599  163.8200 C.2     1  UNL1        0.2311
     14 O         137.5897  143.0492  163.7357 O.2     1  UNL1       -0.2744
     15 N         140.0894  142.7363  163.1004 N.am    1  UNL1       -0.2639
     16 H         140.9248  142.2184  163.1557 H       1  UNL1        0.1567
     17 C         140.0435  144.0020  162.2966 C.ar    1  UNL1        0.1656
     18 N         139.6097  145.3483  162.7958 N.ar    1  UNL1       -0.2224
     19 C         139.7214  146.3218  161.6602 C.ar    1  UNL1        0.1079
     20 C         140.2243  145.5772  160.4590 C.ar    1  UNL1        0.0588
     21 S         140.4233  144.1435  160.8524 S.2     1  UNL1       -0.0508
     22 C         138.5175  139.6908  163.9931 C.3     1  UNL1        0.0135
     23 C         139.5751  138.7116  163.5775 C.3     1  UNL1        0.0008
     24 C         140.2991  138.7005  162.2638 C.3     1  UNL1        0.0000
     25 C         141.2659  137.5537  162.2770 C.3     1  UNL1        0.0000
     26 C         141.1394  136.8561  163.5988 C.3     1  UNL1        0.0000
     27 C         140.0945  137.5717  164.4027 C.3     1  UNL1        0.0000
@<TRIPOS>BOND
     1     9    10    1
     2    10    11    2
     3    10    12    2
     4    10     2    1
     5     2     3   ar
     6     3     4   ar
     7     4     5   ar
     8     5     1    1
     9     1    22    1
    10    22    23    1
    11    23    24    1
    12    24    25    1
    13    25    26    1
    14    26    27    1
    15     1    13    1
    16    13    14    2
    17    13    15   am
    18    15    17    1
    19    17    18   ar
    20    18    19   ar
    21    19    20   ar
    22    20    21   ar
    23     5     6   ar
    24     6     7   ar
    25     7     8    1
    26     7     2   ar
    27    27    23    1
    28    21    17   ar
    29    15    16    1
@<TRIPOS>MOLECULE
*****
 27 29 0 0 0
SMALL
GASTEIGER

@<TRIPOS>ATOM
      1 C         139.3154  139.9545  164.6074 C.3     1  UNL1        0.0991
      2 C         140.3747  140.8853  168.8807 C.ar    1  UNL1        0.1330
      3 C         139.3007  139.8837  168.5754 C.ar    1  UNL1        0.0203
      4 C         138.9476  139.5735  167.1509 C.ar    1  UNL1       -0.0023
      5 C         139.6685  140.2648  166.0318 C.ar    1  UNL1       -0.0116
      6 C         140.7425  141.2663  166.3372 C.ar    1  UNL1        0.0272
      7 C         141.0956  141.5766  167.7617 C.ar    1  UNL1        0.1568
      8 F         142.1697  142.5782  168.0670 F       1  UNL1       -0.2028
      9 C         141.0810  141.5058  171.7296 C.3     1  UNL1        0.1817
     10 S         140.7279  141.1955  170.3052 S.O2    1  UNL1        0.0126
     11 O         139.5153  142.0717  170.4149 O.2     1  UNL1       -0.1685
     12 O         141.9404  140.3194  170.1954 O.2     1  UNL1       -0.1685
     13 C         140.2303  139.1052  163.7758 C.2     1  UNL1        0.2311
     14 O         140.1553  137.6099  163.8676 O.2     1  UNL1       -0.2744
     15 N         141.2201  139.7512  162.8523 N.am    1  UNL1       -0.2639
     16 H         141.2694  140.7326  162.7920 H       1  UNL1        0.1567
     17 C         142.1351  138.9018  162.0207 C.ar    1  UNL1        0.1656
     18 N         143.5237  138.4750  162.3940 N.ar    1  UNL1       -0.2224
     19 C         144.0688  137.6396  161.2738 C.ar    1  UNL1        0.1079
     20 C         143.0170  137.5501  160.2080 C.ar    1  UNL1        0.0588
     21 S         141.8219  138.3302  160.6696 S.2     1  UNL1       -0.0508
     22 C         138.0473  140.4935  164.0146 C.3     1  UNL1        0.0135
     23 C         137.9536  141.9413  163.6337 C.3     1  UNL1        0.0008
     24 C         138.0278  142.4932  162.2408 C.3     1  UNL1        0.0000
     25 C         137.8894  143.9844  162.3250 C.3     1  UNL1        0.0000
     26 C         137.7296  144.3542  163.7699 C.3     1  UNL1        0.0000
     27 C         137.7694  143.0915  164.5788 C.3     1  UNL1        0.0000
@<TRIPOS>BOND
     1     9    10    1
     2    10    11    2
     3    10    12    2
     4    10     2    1
     5     2     3   ar
     6     3     4   ar
     7     4     5   ar
     8     5     1    1
     9     1    22    1
    10    22    23    1
    11    23    24    1
    12    24    25    1
    13    25    26    1
    14    26    27    1
    15     1    13    1
    16    13    14    2
    17    13    15   am
    18    15    17    1
    19    17    18   ar
    20    18    19   ar
    21    19    20   ar
    22    20    21   ar
    23     5     6   ar
    24     6     7   ar
    25     7     8    1
    26     7     2   ar
    27    27    23    1
    28    21    17   ar
    29    15    16    1
@<TRIPOS>MOLECULE
*****
 27 29 0 0 0
SMALL
GASTEIGER

@<TRIPOS>ATOM
      1 C         142.8848  143.0265  164.2258 C.3     1  UNL1        0.0991
      2 C         141.5770  142.3707  168.4813 C.ar    1  UNL1        0.1330
      3 C         140.5539  142.6080  167.4104 C.ar    1  UNL1        0.0203
      4 C         140.9898  142.8266  165.9919 C.ar    1  UNL1       -0.0023
      5 C         142.4488  142.8079  165.6443 C.ar    1  UNL1       -0.0116
      6 C         143.4719  142.5706  166.7152 C.ar    1  UNL1        0.0272
      7 C         143.0360  142.3519  168.1337 C.ar    1  UNL1        0.1568
      8 F         144.0592  142.1146  169.2047 F       1  UNL1       -0.2028
      9 C         140.7052  141.9335  171.3184 C.3     1  UNL1        0.1817
     10 S         141.1411  142.1521  169.8999 S.O2    1  UNL1        0.0126
     11 O         140.9099  140.6996  169.6050 O.2     1  UNL1       -0.1685
     12 O         141.3723  143.6045  170.1947 O.2     1  UNL1       -0.1685
     13 C         143.3673  141.8692  163.4026 C.2     1  UNL1        0.2311
     14 O         144.8379  141.6563  163.1974 O.2     1  UNL1       -0.2744
     15 N         142.3794  140.9246  162.7847 N.am    1  UNL1       -0.2639
     16 H         141.4142  141.0643  162.9195 H       1  UNL1        0.1567
     17 C         142.8620  139.7672  161.9616 C.ar    1  UNL1        0.1656
     18 N         143.6658  138.6038  162.4619 N.ar    1  UNL1       -0.2224
     19 C         143.9261  137.6877  161.3031 C.ar    1  UNL1        0.1079
     20 C         143.2832  138.2849  160.0865 C.ar    1  UNL1        0.0588
     21 S         142.6256  139.5701  160.4935 S.2     1  UNL1       -0.0508
     22 C         142.8381  144.4025  163.6304 C.3     1  UNL1        0.0135
     23 C         141.6643  144.8185  162.7943 C.3     1  UNL1        0.0008
     24 C         141.6018  144.8090  161.2956 C.3     1  UNL1        0.0000
     25 C         140.2458  145.3017  160.8851 C.3     1  UNL1        0.0000
     26 C         139.4702  145.6157  162.1301 C.3     1  UNL1        0.0000
     27 C         140.3469  145.3170  163.3101 C.3     1  UNL1        0.0000
@<TRIPOS>BOND
     1     9    10    1
     2    10    11    2
     3    10    12    2
     4    10     2    1
     5     2     3   ar
     6     3     4   ar
     7     4     5   ar
     8     5     1    1
     9     1    22    1
    10    22    23    1
    11    23    24    1
    12    24    25    1
    13    25    26    1
    14    26    27    1
    15     1    13    1
    16    13    14    2
    17    13    15   am
    18    15    17    1
    19    17    18   ar
    20    18    19   ar
    21    19    20   ar
    22    20    21   ar
    23     5     6   ar
    24     6     7   ar
    25     7     8    1
    26     7     2   ar
    27    27    23    1
    28    21    17   ar
    29    15    16    1
@<TRIPOS>MOLECULE
*****
 27 29 0 0 0
SMALL
GASTEIGER

@<TRIPOS>ATOM
      1 C         140.9440  144.9020  160.9719 C.3     1  UNL1        0.0991
      2 C         143.4267  141.7112  162.9480 C.ar    1  UNL1        0.1330
      3 C         142.3723  141.3311  161.9512 C.ar    1  UNL1        0.0203
      4 C         141.5447  142.3947  161.2925 C.ar    1  UNL1       -0.0023
      5 C         141.7716  143.8384  161.6306 C.ar    1  UNL1       -0.0116
      6 C         142.8260  144.2185  162.6273 C.ar    1  UNL1        0.0272
      7 C         143.6536  143.1549  163.2861 C.ar    1  UNL1        0.1568
      8 F         144.7081  143.5350  164.2829 F       1  UNL1       -0.2028
      9 C         145.0819  139.5840  164.2654 C.3     1  UNL1        0.1817
     10 S         144.2543  140.6476  163.6067 S.O2    1  UNL1        0.0126
     11 O         145.4094  140.9940  162.7147 O.2     1  UNL1       -0.1685
     12 O         143.0992  140.3013  164.4987 O.2     1  UNL1       -0.1685
     13 C         141.0712  145.1455  159.4973 C.2     1  UNL1        0.2311
     14 O         142.4193  145.0910  158.8416 O.2     1  UNL1       -0.2744
     15 N         139.8504  145.4434  158.6782 N.am    1  UNL1       -0.2639
     16 H         138.9656  145.4792  159.1085 H       1  UNL1        0.1567
     17 C         139.9777  145.6869  157.2035 C.ar    1  UNL1        0.1656
     18 N         139.7557  146.9948  156.5035 N.ar    1  UNL1       -0.2224
     19 C         139.9901  146.7814  155.0374 C.ar    1  UNL1        0.1079
     20 C         140.3570  145.3416  154.8313 C.ar    1  UNL1        0.0588
     21 S         140.3493  144.6652  156.1701 S.2     1  UNL1       -0.0508
     22 C         139.9892  145.7221  161.7878 C.3     1  UNL1        0.0135
     23 C         139.2700  145.1016  162.9487 C.3     1  UNL1        0.0008
     24 C         137.9716  144.3533  162.8835 C.3     1  UNL1        0.0000
     25 C         137.6220  143.9097  164.2732 C.3     1  UNL1        0.0000
     26 C         138.7044  144.3838  165.1971 C.3     1  UNL1        0.0000
     27 C         139.7229  145.1204  164.3786 C.3     1  UNL1        0.0000
@<TRIPOS>BOND
     1     9    10    1
     2    10    11    2
     3    10    12    2
     4    10     2    1
     5     2     3   ar
     6     3     4   ar
     7     4     5   ar
     8     5     1    1
     9     1    22    1
    10    22    23    1
    11    23    24    1
    12    24    25    1
    13    25    26    1
    14    26    27    1
    15     1    13    1
    16    13    14    2
    17    13    15   am
    18    15    17    1
    19    17    18   ar
    20    18    19   ar
    21    19    20   ar
    22    20    21   ar
    23     5     6   ar
    24     6     7   ar
    25     7     8    1
    26     7     2   ar
    27    27    23    1
    28    21    17   ar
    29    15    16    1
@<TRIPOS>MOLECULE
*****
 27 29 0 0 0
SMALL
GASTEIGER

@<TRIPOS>ATOM
      1 C         140.0406  139.0272  159.9858 C.3     1  UNL1        0.0991
      2 C         139.9757  143.3720  161.1554 C.ar    1  UNL1        0.1330
      3 C         141.2299  142.7629  160.6023 C.ar    1  UNL1        0.0203
      4 C         141.2515  141.3146  160.2124 C.ar    1  UNL1       -0.0023
      5 C         140.0190  140.4755  160.3757 C.ar    1  UNL1       -0.0116
      6 C         138.7648  141.0846  160.9288 C.ar    1  UNL1        0.0272
      7 C         138.7432  142.5329  161.3186 C.ar    1  UNL1        0.1568
      8 F         137.4889  143.1420  161.8718 F       1  UNL1       -0.2028
      9 C         139.9324  146.2686  161.9351 C.3     1  UNL1        0.1817
     10 S         139.9541  144.8203  161.5452 S.O2    1  UNL1        0.0126
     11 O         139.7076  145.2015  160.1156 O.2     1  UNL1       -0.1685
     12 O         140.2005  144.4392  162.9749 O.2     1  UNL1       -0.1685
     13 C         140.7360  138.5995  158.7275 C.2     1  UNL1        0.2311
     14 O         140.0613  138.7784  157.3998 O.2     1  UNL1       -0.2744
     15 N         142.1062  137.9929  158.7968 N.am    1  UNL1       -0.2639
     16 H         142.5490  137.8755  159.6681 H       1  UNL1        0.1567
     17 C         142.8015  137.5653  157.5383 C.ar    1  UNL1        0.1656
     18 N         143.5976  138.4509  156.6262 N.ar    1  UNL1       -0.2224
     19 C         144.1109  137.6099  155.4953 C.ar    1  UNL1        0.1079
     20 C         143.6321  136.2043  155.7084 C.ar    1  UNL1        0.0588
     21 S         142.8229  136.1768  156.9710 S.2     1  UNL1       -0.0508
     22 C         139.3669  138.0065  160.8544 C.3     1  UNL1        0.0135
     23 C         139.8228  137.8076  162.2695 C.3     1  UNL1        0.0008
     24 C         138.9515  137.8447  163.4899 C.3     1  UNL1        0.0000
     25 C         139.8202  137.5966  164.6874 C.3     1  UNL1        0.0000
     26 C         141.2284  137.4062  164.2070 C.3     1  UNL1        0.0000
     27 C         141.2300  137.5366  162.7126 C.3     1  UNL1        0.0000
@<TRIPOS>BOND
     1     9    10    1
     2    10    11    2
     3    10    12    2
     4    10     2    1
     5     2     3   ar
     6     3     4   ar
     7     4     5   ar
     8     5     1    1
     9     1    22    1
    10    22    23    1
    11    23    24    1
    12    24    25    1
    13    25    26    1
    14    26    27    1
    15     1    13    1
    16    13    14    2
    17    13    15   am
    18    15    17    1
    19    17    18   ar
    20    18    19   ar
    21    19    20   ar
    22    20    21   ar
    23     5     6   ar
    24     6     7   ar
    25     7     8    1
    26     7     2   ar
    27    27    23    1
    28    21    17   ar
    29    15    16    1
