@<TRIPOS>MOLECULE
*****
 42 46 0 0 0
SMALL
GASTEIGER

@<TRIPOS>ATOM
      1 C         140.5380  139.0463  157.6505 C.3     1  UNL1        0.1035
      2 C         139.6835  138.3725  158.6830 C.3     1  UNL1        0.0933
      3 N         139.8250  139.5668  159.5794 N.3     1  UNL1       -0.2711
      4 C         140.6795  140.2405  158.5470 C.3     1  UNL1        0.0933
      5 C         139.3209  139.9349  160.9434 C.3     1  UNL1        0.0578
      6 C         138.1132  140.8132  161.0848 C.3     1  UNL1        0.0187
      7 C         137.6091  141.1812  162.4488 C.3     1  UNL1        0.0326
      8 C         138.3126  140.6710  163.6713 C.3     1  UNL1        0.1085
      9 O         137.2172  141.4682  164.3149 O.3     1  UNL1       -0.3826
     10 C         139.5203  139.7927  163.5299 C.3     1  UNL1        0.0326
     11 C         140.0245  139.4246  162.1660 C.3     1  UNL1        0.0187
     12 H         136.6632  141.8703  163.6276 H       1  UNL1        0.2107
     13 C         138.6358  140.4376  165.1174 C.ar    1  UNL1        0.0211
     14 C         138.0746  139.2415  165.8277 C.ar    1  UNL1        0.0043
     15 C         138.3977  139.0081  167.2737 C.ar    1  UNL1        0.0575
     16 C         139.2821  139.9708  168.0095 C.ar    1  UNL1        0.2247
     17 N         139.8432  141.1668  167.2992 N.ar    1  UNL1       -0.2104
     18 C         139.5201  141.4003  165.8531 C.ar    1  UNL1        0.1000
     19 O         139.6051  139.7374  169.4555 O.3     1  UNL1       -0.4640
     20 C         141.0150  139.8923  169.9436 C.3     1  UNL1        0.1676
     21 C         142.3363  139.2823  169.5803 C.3     1  UNL1        0.0437
     22 C         143.0089  140.1114  170.6339 C.3     1  UNL1        0.0074
     23 C         141.6876  140.7214  170.9972 C.3     1  UNL1        0.0437
     24 O         143.3551  138.0746  157.3043 O.2     1  UNL1       -0.2733
     25 C         142.4506  138.1923  156.1134 C.2     1  UNL1        0.2426
     26 N         141.0421  138.6781  156.2865 N.am    1  UNL1       -0.3018
     27 H         140.4485  138.7554  155.5049 H       1  UNL1        0.1495
     28 C         142.9547  137.8242  154.7495 C.3     1  UNL1        0.1759
     29 N         143.2571  136.3917  154.4230 N.am    1  UNL1       -0.2931
     30 C         142.1760  135.3564  154.5182 C.2     1  UNL1        0.2462
     31 O         140.7923  135.7535  154.9399 O.2     1  UNL1       -0.2701
     32 H         144.1653  136.1310  154.1463 H       1  UNL1        0.1502
     33 C         142.4784  133.9239  154.1918 C.ar    1  UNL1        0.0533
     34 C         142.1365  133.3747  152.8384 C.ar    1  UNL1        0.0045
     35 C         142.4390  131.9423  152.5121 C.ar    1  UNL1        0.0001
     36 C         143.0833  131.0590  153.5390 C.ar    1  UNL1        0.0039
     37 C         143.4251  131.6081  154.8923 C.ar    1  UNL1        0.0716
     38 C         143.1227  133.0405  155.2187 C.ar    1  UNL1        0.0084
     39 C         144.0695  130.7248  155.9192 C.3     1  UNL1        0.4186
     40 F         144.7138  129.8414  156.9462 F       1  UNL1       -0.1659
     41 F         143.0507  131.1582  156.9313 F       1  UNL1       -0.1659
     42 F         145.0882  130.2913  154.9072 F       1  UNL1       -0.1659
@<TRIPOS>BOND
     1    24    25    2
     2    25    28    1
     3    28    29    1
     4    29    30   am
     5    30    31    2
     6    30    33    1
     7    33    34   ar
     8    34    35   ar
     9    35    36   ar
    10    36    37   ar
    11    37    39    1
    12    39    40    1
    13    39    41    1
    14    39    42    1
    15    37    38   ar
    16    25    26   am
    17    26     1    1
    18     1     2    1
    19     2     3    1
    20     5     3    1
    21     5     6    1
    22     6     7    1
    23     7     8    1
    24     8     9    1
    25     8    13    1
    26    13    14   ar
    27    14    15   ar
    28    15    16   ar
    29    16    19    1
    30    19    20    1
    31    20    21    1
    32    21    22    1
    33    22    23    1
    34    16    17   ar
    35    17    18   ar
    36     8    10    1
    37    10    11    1
    38     3     4    1
    39    38    33   ar
    40     4     1    1
    41    11     5    1
    42    18    13   ar
    43    23    20    1
    44    29    32    1
    45    26    27    1
    46     9    12    1
@<TRIPOS>MOLECULE
*****
 42 46 0 0 0
SMALL
GASTEIGER

@<TRIPOS>ATOM
      1 C         138.5151  140.0409  158.1710 C.3     1  UNL1        0.1035
      2 C         139.8914  139.4682  158.3371 C.3     1  UNL1        0.0933
      3 N         139.8431  139.7777  159.8041 N.3     1  UNL1       -0.2711
      4 C         138.4668  140.3504  159.6379 C.3     1  UNL1        0.0933
      5 C         140.7822  139.5915  160.9588 C.3     1  UNL1        0.0578
      6 C         142.1762  139.0924  160.7190 C.3     1  UNL1        0.0187
      7 C         143.1153  138.9063  161.8738 C.3     1  UNL1        0.0326
      8 C         142.6603  139.2192  163.2684 C.3     1  UNL1        0.1085
      9 O         144.0658  138.7753  163.5464 O.3     1  UNL1       -0.3826
     10 C         141.2662  139.7184  163.5083 C.3     1  UNL1        0.0326
     11 C         140.3272  139.9045  162.3535 C.3     1  UNL1        0.0187
     12 H         144.4993  138.5335  162.7131 H       1  UNL1        0.2107
     13 C         142.6934  139.3780  164.7596 C.ar    1  UNL1        0.0211
     14 C         141.9661  140.5181  165.4088 C.ar    1  UNL1        0.0043
     15 C         141.9992  140.6769  166.9000 C.ar    1  UNL1        0.0575
     16 C         142.7596  139.6956  167.7420 C.ar    1  UNL1        0.2247
     17 N         143.4869  138.5557  167.0929 N.ar    1  UNL1       -0.2104
     18 C         143.4538  138.3968  165.6017 C.ar    1  UNL1        0.1000
     19 O         142.7927  139.8545  169.2332 O.3     1  UNL1       -0.4640
     20 C         142.8761  141.2237  169.8400 C.3     1  UNL1        0.1676
     21 C         142.0519  141.9998  170.8241 C.3     1  UNL1        0.0437
     22 C         142.9941  143.1602  170.6982 C.3     1  UNL1        0.0074
     23 C         143.8183  142.3842  169.7141 C.3     1  UNL1        0.0437
     24 O         137.6683  142.8012  157.3560 O.2     1  UNL1       -0.2733
     25 C         137.1526  141.6071  156.6086 C.2     1  UNL1        0.2426
     26 N         137.5760  140.2271  157.0161 N.am    1  UNL1       -0.3018
     27 H         137.2376  139.4434  156.5256 H       1  UNL1        0.1495
     28 C         136.2136  141.7932  155.4539 C.3     1  UNL1        0.1759
     29 N         134.7311  141.7494  155.6781 N.am    1  UNL1       -0.2931
     30 C         134.0289  140.4290  155.7949 C.2     1  UNL1        0.2462
     31 O         134.8093  139.1525  155.6874 O.2     1  UNL1       -0.2701
     32 H         134.2189  142.5872  155.7486 H       1  UNL1        0.1502
     33 C         132.5464  140.3852  156.0191 C.ar    1  UNL1        0.0533
     34 C         131.6684  141.4549  155.4405 C.ar    1  UNL1        0.0045
     35 C         130.1859  141.4110  155.6648 C.ar    1  UNL1        0.0001
     36 C         129.5815  140.2974  156.4676 C.ar    1  UNL1        0.0039
     37 C         130.4595  139.2277  157.0462 C.ar    1  UNL1        0.0716
     38 C         131.9419  139.2716  156.8219 C.ar    1  UNL1        0.0084
     39 C         129.8550  138.1141  157.8490 C.3     1  UNL1        0.4186
     40 F         129.2505  137.0005  158.6518 F       1  UNL1       -0.1659
     41 F         129.8916  137.2241  156.6421 F       1  UNL1       -0.1659
     42 F         129.8184  139.0041  159.0559 F       1  UNL1       -0.1659
@<TRIPOS>BOND
     1    24    25    2
     2    25    28    1
     3    28    29    1
     4    29    30   am
     5    30    31    2
     6    30    33    1
     7    33    34   ar
     8    34    35   ar
     9    35    36   ar
    10    36    37   ar
    11    37    39    1
    12    39    40    1
    13    39    41    1
    14    39    42    1
    15    37    38   ar
    16    25    26   am
    17    26     1    1
    18     1     2    1
    19     2     3    1
    20     5     3    1
    21     5     6    1
    22     6     7    1
    23     7     8    1
    24     8     9    1
    25     8    13    1
    26    13    14   ar
    27    14    15   ar
    28    15    16   ar
    29    16    19    1
    30    19    20    1
    31    20    21    1
    32    21    22    1
    33    22    23    1
    34    16    17   ar
    35    17    18   ar
    36     8    10    1
    37    10    11    1
    38     3     4    1
    39    38    33   ar
    40     4     1    1
    41    11     5    1
    42    18    13   ar
    43    23    20    1
    44    29    32    1
    45    26    27    1
    46     9    12    1
@<TRIPOS>MOLECULE
*****
 42 46 0 0 0
SMALL
GASTEIGER

@<TRIPOS>ATOM
      1 C         141.6050  139.5955  160.7947 C.3     1  UNL1        0.1035
      2 C         140.8323  140.5820  161.6192 C.3     1  UNL1        0.0933
      3 N         141.4314  140.0072  162.8684 N.3     1  UNL1       -0.2711
      4 C         142.2041  139.0207  162.0440 C.3     1  UNL1        0.0933
      5 C         141.3087  140.2984  164.3347 C.3     1  UNL1        0.0578
      6 C         140.2738  139.5885  165.1563 C.3     1  UNL1        0.0187
      7 C         140.1511  139.8797  166.6227 C.3     1  UNL1        0.0326
      8 C         141.0634  140.8807  167.2675 C.3     1  UNL1        0.1085
      9 O         140.2468  140.4688  168.4563 O.3     1  UNL1       -0.3826
     10 C         142.0983  141.5906  166.4459 C.3     1  UNL1        0.0326
     11 C         142.2210  141.2994  164.9796 C.3     1  UNL1        0.0187
     12 H         139.5938  139.8046  168.1856 H       1  UNL1        0.2107
     13 C         141.6920  141.7387  168.3251 C.ar    1  UNL1        0.0211
     14 C         140.8458  142.6853  169.1238 C.ar    1  UNL1        0.0043
     15 C         141.4744  143.5433  170.1815 C.ar    1  UNL1        0.0575
     16 C         142.9493  143.4547  170.4404 C.ar    1  UNL1        0.2247
     17 N         143.7955  142.5082  169.6417 N.ar    1  UNL1       -0.2104
     18 C         143.1669  141.6501  168.5840 C.ar    1  UNL1        0.1000
     19 O         143.5779  144.3127  171.4981 O.3     1  UNL1       -0.4640
     20 C         145.0359  144.6554  171.4173 C.3     1  UNL1        0.1676
     21 C         145.8710  145.8377  171.8110 C.3     1  UNL1        0.0437
     22 C         147.0980  145.1402  171.3031 C.3     1  UNL1        0.0074
     23 C         146.2630  143.9580  170.9095 C.3     1  UNL1        0.0437
     24 O         144.0670  140.4342  159.2997 O.2     1  UNL1       -0.2733
     25 C         142.9586  139.7237  158.5808 C.2     1  UNL1        0.2426
     26 N         141.7276  139.3043  159.3283 N.am    1  UNL1       -0.3018
     27 H         141.0002  138.8380  158.8565 H       1  UNL1        0.1495
     28 C         143.0813  139.4326  157.1145 C.3     1  UNL1        0.1759
     29 N         143.4283  138.0488  156.6510 N.am    1  UNL1       -0.2931
     30 C         142.3772  136.9789  156.6310 C.2     1  UNL1        0.2462
     31 O         140.9790  137.2927  157.0745 O.2     1  UNL1       -0.2701
     32 H         144.3459  137.8428  156.3600 H       1  UNL1        0.1502
     33 C         142.7242  135.5951  156.1675 C.ar    1  UNL1        0.0533
     34 C         142.1841  135.0828  154.8653 C.ar    1  UNL1        0.0045
     35 C         142.5311  133.6991  154.4019 C.ar    1  UNL1        0.0001
     36 C         143.4182  132.8276  155.2407 C.ar    1  UNL1        0.0039
     37 C         143.9582  133.3398  156.5429 C.ar    1  UNL1        0.0716
     38 C         143.6112  134.7236  157.0064 C.ar    1  UNL1        0.0084
     39 C         144.8453  132.4684  157.3818 C.3     1  UNL1        0.4186
     40 F         145.7324  131.5969  158.2206 F       1  UNL1       -0.1659
     41 F         144.5622  133.3301  158.5764 F       1  UNL1       -0.1659
     42 F         145.1284  131.6066  156.1871 F       1  UNL1       -0.1659
@<TRIPOS>BOND
     1    24    25    2
     2    25    28    1
     3    28    29    1
     4    29    30   am
     5    30    31    2
     6    30    33    1
     7    33    34   ar
     8    34    35   ar
     9    35    36   ar
    10    36    37   ar
    11    37    39    1
    12    39    40    1
    13    39    41    1
    14    39    42    1
    15    37    38   ar
    16    25    26   am
    17    26     1    1
    18     1     2    1
    19     2     3    1
    20     5     3    1
    21     5     6    1
    22     6     7    1
    23     7     8    1
    24     8     9    1
    25     8    13    1
    26    13    14   ar
    27    14    15   ar
    28    15    16   ar
    29    16    19    1
    30    19    20    1
    31    20    21    1
    32    21    22    1
    33    22    23    1
    34    16    17   ar
    35    17    18   ar
    36     8    10    1
    37    10    11    1
    38     3     4    1
    39    38    33   ar
    40     4     1    1
    41    11     5    1
    42    18    13   ar
    43    23    20    1
    44    29    32    1
    45    26    27    1
    46     9    12    1
@<TRIPOS>MOLECULE
*****
 42 46 0 0 0
SMALL
GASTEIGER

@<TRIPOS>ATOM
      1 C         142.3414  141.0251  160.9285 C.3     1  UNL1        0.1035
      2 C         143.4889  140.2118  160.4071 C.3     1  UNL1        0.0933
      3 N         142.6421  139.7548  159.2564 N.3     1  UNL1       -0.2711
      4 C         141.4946  140.5681  159.7778 C.3     1  UNL1        0.0933
      5 C         142.8547  138.8566  158.0741 C.3     1  UNL1        0.0578
      6 C         143.3256  139.4309  156.7709 C.3     1  UNL1        0.0187
      7 C         143.5382  138.5326  155.5885 C.3     1  UNL1        0.0326
      8 C         143.2799  137.0600  155.7094 C.3     1  UNL1        0.1085
      9 O         143.7134  137.1316  154.2752 O.3     1  UNL1       -0.3826
     10 C         142.8090  136.4856  157.0126 C.3     1  UNL1        0.0326
     11 C         142.5964  137.3839  158.1949 C.3     1  UNL1        0.0187
     12 H         143.9201  138.0510  154.0454 H       1  UNL1        0.2107
     13 C         143.1722  135.6122  155.3322 C.ar    1  UNL1        0.0211
     14 C         142.3555  135.2063  154.1412 C.ar    1  UNL1        0.0043
     15 C         142.2478  133.7585  153.7640 C.ar    1  UNL1        0.0575
     16 C         142.9567  132.7167  154.5778 C.ar    1  UNL1        0.2247
     17 N         143.7732  133.1226  155.7687 N.ar    1  UNL1       -0.2104
     18 C         143.8810  134.5704  156.1460 C.ar    1  UNL1        0.1000
     19 O         142.8488  131.2689  154.2005 O.3     1  UNL1       -0.4640
     20 C         141.5951  130.5050  154.5078 C.3     1  UNL1        0.1676
     21 C         141.2742  129.2594  155.2794 C.3     1  UNL1        0.0437
     22 C         139.8219  129.4246  154.9425 C.3     1  UNL1        0.0074
     23 C         140.1428  130.6703  154.1708 C.3     1  UNL1        0.0437
     24 O         143.5272  143.7807  160.9513 O.2     1  UNL1       -0.2733
     25 C         142.7218  143.3012  162.1223 C.2     1  UNL1        0.2426
     26 N         142.1288  141.9234  162.1109 N.am    1  UNL1       -0.3018
     27 H         141.6002  141.6086  162.8795 H       1  UNL1        0.1495
     28 C         142.5092  144.1993  163.3046 C.3     1  UNL1        0.1759
     29 N         142.6107  143.6456  164.6950 N.am    1  UNL1       -0.2931
     30 C         141.4618  142.8820  165.2840 C.2     1  UNL1        0.2462
     31 O         140.2114  142.6720  164.4826 O.2     1  UNL1       -0.2701
     32 H         143.4314  143.7834  165.2210 H       1  UNL1        0.1502
     33 C         141.5634  142.3283  166.6744 C.ar    1  UNL1        0.0533
     34 C         142.5278  141.2185  166.9711 C.ar    1  UNL1        0.0045
     35 C         142.6293  140.6648  168.3615 C.ar    1  UNL1        0.0001
     36 C         141.7664  141.2209  169.4551 C.ar    1  UNL1        0.0039
     37 C         140.8019  142.3307  169.1583 C.ar    1  UNL1        0.0716
     38 C         140.7004  142.8844  167.7680 C.ar    1  UNL1        0.0084
     39 C         139.9389  142.8869  170.2520 C.3     1  UNL1        0.4186
     40 F         139.0760  143.4430  171.3456 F       1  UNL1       -0.1659
     41 F         139.6829  141.4976  170.7564 F       1  UNL1       -0.1659
     42 F         140.1950  144.2761  169.7475 F       1  UNL1       -0.1659
@<TRIPOS>BOND
     1    24    25    2
     2    25    28    1
     3    28    29    1
     4    29    30   am
     5    30    31    2
     6    30    33    1
     7    33    34   ar
     8    34    35   ar
     9    35    36   ar
    10    36    37   ar
    11    37    39    1
    12    39    40    1
    13    39    41    1
    14    39    42    1
    15    37    38   ar
    16    25    26   am
    17    26     1    1
    18     1     2    1
    19     2     3    1
    20     5     3    1
    21     5     6    1
    22     6     7    1
    23     7     8    1
    24     8     9    1
    25     8    13    1
    26    13    14   ar
    27    14    15   ar
    28    15    16   ar
    29    16    19    1
    30    19    20    1
    31    20    21    1
    32    21    22    1
    33    22    23    1
    34    16    17   ar
    35    17    18   ar
    36     8    10    1
    37    10    11    1
    38     3     4    1
    39    38    33   ar
    40     4     1    1
    41    11     5    1
    42    18    13   ar
    43    23    20    1
    44    29    32    1
    45    26    27    1
    46     9    12    1
@<TRIPOS>MOLECULE
*****
 42 46 0 0 0
SMALL
GASTEIGER

@<TRIPOS>ATOM
      1 C         142.3792  138.4963  158.1112 C.3     1  UNL1        0.1035
      2 C         142.9721  138.3949  159.4853 C.3     1  UNL1        0.0933
      3 N         142.4571  139.7661  159.8087 N.3     1  UNL1       -0.2711
      4 C         141.8642  139.8675  158.4346 C.3     1  UNL1        0.0933
      5 C         142.5122  140.6639  161.0090 C.3     1  UNL1        0.0578
      6 C         143.3684  141.8954  160.9859 C.3     1  UNL1        0.0187
      7 C         143.4234  142.7932  162.1863 C.3     1  UNL1        0.0326
      8 C         142.6223  142.4597  163.4097 C.3     1  UNL1        0.1085
      9 O         143.2795  143.7282  163.8666 O.3     1  UNL1       -0.3826
     10 C         141.7661  141.2282  163.4329 C.3     1  UNL1        0.0326
     11 C         141.7110  140.3304  162.2325 C.3     1  UNL1        0.0187
     12 H         143.8465  144.0718  163.1585 H       1  UNL1        0.2107
     13 C         142.0494  142.5666  164.7919 C.ar    1  UNL1        0.0211
     14 C         142.8179  142.0355  165.9655 C.ar    1  UNL1        0.0043
     15 C         142.2450  142.1424  167.3476 C.ar    1  UNL1        0.0575
     16 C         140.9036  142.7806  167.5561 C.ar    1  UNL1        0.2247
     17 N         140.1351  143.3118  166.3827 N.ar    1  UNL1       -0.2104
     18 C         140.7080  143.2048  165.0004 C.ar    1  UNL1        0.1000
     19 O         140.3308  142.8876  168.9383 O.3     1  UNL1       -0.4640
     20 C         140.1576  141.6554  169.7759 C.3     1  UNL1        0.1676
     21 C         139.3026  140.4259  169.6899 C.3     1  UNL1        0.0437
     22 C         139.9126  139.9126  170.9605 C.3     1  UNL1        0.0074
     23 C         140.7677  141.1421  171.0465 C.3     1  UNL1        0.0437
     24 O         139.7506  137.3801  157.1921 O.2     1  UNL1       -0.2733
     25 C         141.0099  137.0403  156.4513 C.2     1  UNL1        0.2426
     26 N         142.3242  137.5984  156.9108 N.am    1  UNL1       -0.3018
     27 H         143.1507  137.3754  156.4246 H       1  UNL1        0.1495
     28 C         140.9549  136.1424  155.2510 C.3     1  UNL1        0.1759
     29 N         141.0460  134.6550  155.4223 N.am    1  UNL1       -0.2931
     30 C         142.3638  134.0168  155.7479 C.2     1  UNL1        0.2462
     31 O         143.5906  134.8660  155.9023 O.2     1  UNL1       -0.2701
     32 H         140.2408  134.0976  155.3209 H       1  UNL1        0.1502
     33 C         142.4549  132.5293  155.9191 C.ar    1  UNL1        0.0533
     34 C         141.5994  131.6244  155.0830 C.ar    1  UNL1        0.0045
     35 C         141.6905  130.1370  155.2543 C.ar    1  UNL1        0.0001
     36 C         142.6371  129.5546  156.2616 C.ar    1  UNL1        0.0039
     37 C         143.4926  130.4595  157.0977 C.ar    1  UNL1        0.0716
     38 C         143.4015  131.9469  156.9264 C.ar    1  UNL1        0.0084
     39 C         144.4392  129.8771  158.1050 C.3     1  UNL1        0.4186
     40 F         145.3858  129.2947  159.1124 F       1  UNL1       -0.1659
     41 F         143.8341  128.5216  157.8899 F       1  UNL1       -0.1659
     42 F         145.0443  131.2327  158.3201 F       1  UNL1       -0.1659
@<TRIPOS>BOND
     1    24    25    2
     2    25    28    1
     3    28    29    1
     4    29    30   am
     5    30    31    2
     6    30    33    1
     7    33    34   ar
     8    34    35   ar
     9    35    36   ar
    10    36    37   ar
    11    37    39    1
    12    39    40    1
    13    39    41    1
    14    39    42    1
    15    37    38   ar
    16    25    26   am
    17    26     1    1
    18     1     2    1
    19     2     3    1
    20     5     3    1
    21     5     6    1
    22     6     7    1
    23     7     8    1
    24     8     9    1
    25     8    13    1
    26    13    14   ar
    27    14    15   ar
    28    15    16   ar
    29    16    19    1
    30    19    20    1
    31    20    21    1
    32    21    22    1
    33    22    23    1
    34    16    17   ar
    35    17    18   ar
    36     8    10    1
    37    10    11    1
    38     3     4    1
    39    38    33   ar
    40     4     1    1
    41    11     5    1
    42    18    13   ar
    43    23    20    1
    44    29    32    1
    45    26    27    1
    46     9    12    1
@<TRIPOS>MOLECULE
*****
 42 46 0 0 0
SMALL
GASTEIGER

@<TRIPOS>ATOM
      1 C         138.0091  140.9684  157.6001 C.3     1  UNL1        0.1035
      2 C         139.4101  141.5039  157.5764 C.3     1  UNL1        0.0933
      3 N         139.2980  141.8614  159.0288 N.3     1  UNL1       -0.2711
      4 C         137.8970  141.3260  159.0525 C.3     1  UNL1        0.0933
      5 C         140.2093  142.4929  160.0391 C.3     1  UNL1        0.0578
      6 C         140.9212  143.7718  159.7111 C.3     1  UNL1        0.0187
      7 C         141.8326  144.4033  160.7215 C.3     1  UNL1        0.0326
      8 C         142.0321  143.7558  162.0597 C.3     1  UNL1        0.1085
      9 O         142.9203  144.9544  162.2152 O.3     1  UNL1       -0.3826
     10 C         141.3202  142.4768  162.3876 C.3     1  UNL1        0.0326
     11 C         140.4089  141.8454  161.3774 C.3     1  UNL1        0.0187
     12 H         142.8928  145.4847  161.4035 H       1  UNL1        0.2107
     13 C         142.5401  143.5245  163.4520 C.ar    1  UNL1        0.0211
     14 C         141.6499  142.8904  164.4794 C.ar    1  UNL1        0.0043
     15 C         142.1579  142.6591  165.8717 C.ar    1  UNL1        0.0575
     16 C         143.5561  143.0620  166.2365 C.ar    1  UNL1        0.2247
     17 N         144.4461  143.6961  165.2092 N.ar    1  UNL1       -0.2104
     18 C         143.9382  143.9274  163.8168 C.ar    1  UNL1        0.1000
     19 O         144.0640  142.8307  167.6288 O.3     1  UNL1       -0.4640
     20 C         143.1549  142.2527  168.6725 C.3     1  UNL1        0.1676
     21 C         142.2190  142.8222  169.6971 C.3     1  UNL1        0.0437
     22 C         141.8691  141.4353  170.1487 C.3     1  UNL1        0.0074
     23 C         142.8050  140.8657  169.1241 C.3     1  UNL1        0.0437
     24 O         136.3362  142.6933  155.8039 O.2     1  UNL1       -0.2733
     25 C         136.2613  141.1994  155.6917 C.2     1  UNL1        0.2426
     26 N         137.0977  140.3370  156.5897 N.am    1  UNL1       -0.3018
     27 H         137.0485  139.3564  156.5161 H       1  UNL1        0.1495
     28 C         135.3500  140.5679  154.6814 C.3     1  UNL1        0.1759
     29 N         133.8703  140.5319  154.9250 N.am    1  UNL1       -0.2931
     30 C         133.3364  139.9980  156.2211 C.2     1  UNL1        0.2462
     31 O         134.2822  139.5001  157.2736 O.2     1  UNL1       -0.2701
     32 H         133.2496  140.8586  154.2343 H       1  UNL1        0.1502
     33 C         131.8567  139.9620  156.4648 C.ar    1  UNL1        0.0533
     34 C         130.9587  140.9448  155.7738 C.ar    1  UNL1        0.0045
     35 C         129.4791  140.9087  156.0175 C.ar    1  UNL1        0.0001
     36 C         128.8975  139.8898  156.9522 C.ar    1  UNL1        0.0039
     37 C         129.7956  138.9070  157.6432 C.ar    1  UNL1        0.0716
     38 C         131.2752  138.9431  157.3995 C.ar    1  UNL1        0.0084
     39 C         129.2140  137.8881  158.5779 C.3     1  UNL1        0.4186
     40 F         128.6325  136.8692  159.5125 F       1  UNL1       -0.1659
     41 F         129.3079  136.8473  157.5017 F       1  UNL1       -0.1659
     42 F         129.1201  138.9288  159.6540 F       1  UNL1       -0.1659
@<TRIPOS>BOND
     1    24    25    2
     2    25    28    1
     3    28    29    1
     4    29    30   am
     5    30    31    2
     6    30    33    1
     7    33    34   ar
     8    34    35   ar
     9    35    36   ar
    10    36    37   ar
    11    37    39    1
    12    39    40    1
    13    39    41    1
    14    39    42    1
    15    37    38   ar
    16    25    26   am
    17    26     1    1
    18     1     2    1
    19     2     3    1
    20     5     3    1
    21     5     6    1
    22     6     7    1
    23     7     8    1
    24     8     9    1
    25     8    13    1
    26    13    14   ar
    27    14    15   ar
    28    15    16   ar
    29    16    19    1
    30    19    20    1
    31    20    21    1
    32    21    22    1
    33    22    23    1
    34    16    17   ar
    35    17    18   ar
    36     8    10    1
    37    10    11    1
    38     3     4    1
    39    38    33   ar
    40     4     1    1
    41    11     5    1
    42    18    13   ar
    43    23    20    1
    44    29    32    1
    45    26    27    1
    46     9    12    1
@<TRIPOS>MOLECULE
*****
 42 46 0 0 0
SMALL
GASTEIGER

@<TRIPOS>ATOM
      1 C         140.4675  138.5694  157.8298 C.3     1  UNL1        0.1035
      2 C         140.4382  139.9612  158.3883 C.3     1  UNL1        0.0933
      3 N         139.8524  139.4363  159.6655 N.3     1  UNL1       -0.2711
      4 C         139.8818  138.0445  159.1070 C.3     1  UNL1        0.0933
      5 C         139.4175  140.0493  160.9636 C.3     1  UNL1        0.0578
      6 C         138.0601  140.6771  161.0790 C.3     1  UNL1        0.0187
      7 C         137.6252  141.2901  162.3771 C.3     1  UNL1        0.0326
      8 C         138.5477  141.2754  163.5598 C.3     1  UNL1        0.1085
      9 O         137.3684  141.9834  164.1581 O.3     1  UNL1       -0.3826
     10 C         139.9051  140.6476  163.4444 C.3     1  UNL1        0.0326
     11 C         140.3400  140.0346  162.1464 C.3     1  UNL1        0.0187
     12 H         136.6699  142.0690  163.4905 H       1  UNL1        0.2107
     13 C         139.0606  141.5065  164.9503 C.ar    1  UNL1        0.0211
     14 C         139.5996  142.8519  165.3369 C.ar    1  UNL1        0.0043
     15 C         140.1126  143.0830  166.7273 C.ar    1  UNL1        0.0575
     16 C         140.0865  141.9687  167.7313 C.ar    1  UNL1        0.2247
     17 N         139.5475  140.6235  167.3447 N.ar    1  UNL1       -0.2104
     18 C         139.0345  140.3922  165.9542 C.ar    1  UNL1        0.1000
     19 O         140.5995  142.2000  169.1217 O.3     1  UNL1       -0.4640
     20 C         142.0658  142.4135  169.3544 C.3     1  UNL1        0.1676
     21 C         142.8958  142.9190  170.4970 C.3     1  UNL1        0.0437
     22 C         144.1396  142.7154  169.6836 C.3     1  UNL1        0.0074
     23 C         143.3096  142.2098  168.5411 C.3     1  UNL1        0.0437
     24 O         138.4234  137.4551  155.9376 O.2     1  UNL1       -0.2733
     25 C         139.8805  137.3993  155.5856 C.2     1  UNL1        0.2426
     26 N         140.9025  137.9564  156.5316 N.am    1  UNL1       -0.3018
     27 H         141.8588  137.9197  156.3006 H       1  UNL1        0.1495
     28 C         140.3155  136.7863  154.2875 C.3     1  UNL1        0.1759
     29 N         140.8642  135.3904  154.2639 N.am    1  UNL1       -0.2931
     30 C         142.2418  135.1171  154.7906 C.2     1  UNL1        0.2462
     31 O         143.0707  136.2396  155.3411 O.2     1  UNL1       -0.2701
     32 H         140.3202  134.6537  153.9026 H       1  UNL1        0.1502
     33 C         142.7905  133.7212  154.7670 C.ar    1  UNL1        0.0533
     34 C         142.6233  132.8703  153.5431 C.ar    1  UNL1        0.0045
     35 C         143.1721  131.4745  153.5195 C.ar    1  UNL1        0.0001
     36 C         143.8880  130.9296  154.7197 C.ar    1  UNL1        0.0039
     37 C         144.0552  131.7806  155.9436 C.ar    1  UNL1        0.0716
     38 C         143.5064  133.1764  155.9672 C.ar    1  UNL1        0.0084
     39 C         144.7711  131.2357  157.1438 C.3     1  UNL1        0.4186
     40 F         145.4870  130.6909  158.3441 F       1  UNL1       -0.1659
     41 F         144.7443  129.8641  156.5372 F       1  UNL1       -0.1659
     42 F         144.7979  132.6073  157.7505 F       1  UNL1       -0.1659
@<TRIPOS>BOND
     1    24    25    2
     2    25    28    1
     3    28    29    1
     4    29    30   am
     5    30    31    2
     6    30    33    1
     7    33    34   ar
     8    34    35   ar
     9    35    36   ar
    10    36    37   ar
    11    37    39    1
    12    39    40    1
    13    39    41    1
    14    39    42    1
    15    37    38   ar
    16    25    26   am
    17    26     1    1
    18     1     2    1
    19     2     3    1
    20     5     3    1
    21     5     6    1
    22     6     7    1
    23     7     8    1
    24     8     9    1
    25     8    13    1
    26    13    14   ar
    27    14    15   ar
    28    15    16   ar
    29    16    19    1
    30    19    20    1
    31    20    21    1
    32    21    22    1
    33    22    23    1
    34    16    17   ar
    35    17    18   ar
    36     8    10    1
    37    10    11    1
    38     3     4    1
    39    38    33   ar
    40     4     1    1
    41    11     5    1
    42    18    13   ar
    43    23    20    1
    44    29    32    1
    45    26    27    1
    46     9    12    1
@<TRIPOS>MOLECULE
*****
 42 46 0 0 0
SMALL
GASTEIGER

@<TRIPOS>ATOM
      1 C         137.2628  139.5071  154.9362 C.3     1  UNL1        0.1035
      2 C         136.4880  140.3783  155.8799 C.3     1  UNL1        0.0933
      3 N         135.2093  139.7513  155.4088 N.3     1  UNL1       -0.2711
      4 C         135.9841  138.8801  154.4651 C.3     1  UNL1        0.0933
      5 C         133.7573  139.9240  155.7431 C.3     1  UNL1        0.0578
      6 C         133.0043  141.1129  155.2238 C.3     1  UNL1        0.0187
      7 C         131.5522  141.2855  155.5580 C.3     1  UNL1        0.0326
      8 C         130.8531  140.2693  156.4115 C.3     1  UNL1        0.1085
      9 O         129.7209  141.2199  156.1581 O.3     1  UNL1       -0.3826
     10 C         131.6060  139.0804  156.9308 C.3     1  UNL1        0.0326
     11 C         133.0581  138.9077  156.5966 C.3     1  UNL1        0.0187
     12 H         130.0314  141.9517  155.6023 H       1  UNL1        0.2107
     13 C         129.7608  139.5832  157.1770 C.ar    1  UNL1        0.0211
     14 C         130.1036  138.6615  158.3097 C.ar    1  UNL1        0.0043
     15 C         129.0112  137.9754  159.0752 C.ar    1  UNL1        0.0575
     16 C         127.5760  138.2110  158.7080 C.ar    1  UNL1        0.2247
     17 N         127.2332  139.1326  157.5754 N.ar    1  UNL1       -0.2104
     18 C         128.3256  139.8188  156.8098 C.ar    1  UNL1        0.1000
     19 O         126.4837  137.5248  159.4736 O.3     1  UNL1       -0.4640
     20 C         126.6146  137.3297  160.9550 C.3     1  UNL1        0.1676
     21 C         126.5617  138.2317  162.1524 C.3     1  UNL1        0.0437
     22 C         126.7996  137.0538  163.0502 C.3     1  UNL1        0.0074
     23 C         126.8524  136.1519  161.8529 C.3     1  UNL1        0.0437
     24 O         138.6768  136.9625  155.6614 O.2     1  UNL1       -0.2733
     25 C         139.4219  138.0622  154.9646 C.2     1  UNL1        0.2426
     26 N         138.7149  139.3345  154.6020 N.am    1  UNL1       -0.3018
     27 H         139.2040  140.0562  154.1447 H       1  UNL1        0.1495
     28 C         140.8739  137.8896  154.6304 C.3     1  UNL1        0.1759
     29 N         141.4531  136.5129  154.4914 N.am    1  UNL1       -0.2931
     30 C         142.1159  135.8559  155.6657 C.2     1  UNL1        0.2462
     31 O         142.1995  136.5756  156.9791 O.2     1  UNL1       -0.2701
     32 H         141.3982  136.0405  153.6294 H       1  UNL1        0.1502
     33 C         142.6950  134.4792  155.5267 C.ar    1  UNL1        0.0533
     34 C         142.3626  133.6434  154.3264 C.ar    1  UNL1        0.0045
     35 C         142.9417  132.2667  154.1874 C.ar    1  UNL1        0.0001
     36 C         143.8533  131.7259  155.2488 C.ar    1  UNL1        0.0039
     37 C         144.1857  132.5617  156.4491 C.ar    1  UNL1        0.0716
     38 C         143.6066  133.9383  156.5881 C.ar    1  UNL1        0.0084
     39 C         145.0973  132.0208  157.5105 C.3     1  UNL1        0.4186
     40 F         146.0089  131.4800  158.5719 F       1  UNL1       -0.1659
     41 F         144.9375  133.2897  158.2943 F       1  UNL1       -0.1659
     42 F         145.2571  130.7519  156.7267 F       1  UNL1       -0.1659
@<TRIPOS>BOND
     1    24    25    2
     2    25    28    1
     3    28    29    1
     4    29    30   am
     5    30    31    2
     6    30    33    1
     7    33    34   ar
     8    34    35   ar
     9    35    36   ar
    10    36    37   ar
    11    37    39    1
    12    39    40    1
    13    39    41    1
    14    39    42    1
    15    37    38   ar
    16    25    26   am
    17    26     1    1
    18     1     2    1
    19     2     3    1
    20     5     3    1
    21     5     6    1
    22     6     7    1
    23     7     8    1
    24     8     9    1
    25     8    13    1
    26    13    14   ar
    27    14    15   ar
    28    15    16   ar
    29    16    19    1
    30    19    20    1
    31    20    21    1
    32    21    22    1
    33    22    23    1
    34    16    17   ar
    35    17    18   ar
    36     8    10    1
    37    10    11    1
    38     3     4    1
    39    38    33   ar
    40     4     1    1
    41    11     5    1
    42    18    13   ar
    43    23    20    1
    44    29    32    1
    45    26    27    1
    46     9    12    1
@<TRIPOS>MOLECULE
*****
 42 46 0 0 0
SMALL
GASTEIGER

@<TRIPOS>ATOM
      1 C         141.0885  142.0370  160.6594 C.3     1  UNL1        0.1035
      2 C         140.2796  143.2934  160.5279 C.3     1  UNL1        0.0933
      3 N         140.4897  143.2731  159.0428 N.3     1  UNL1       -0.2711
      4 C         141.2986  142.0168  159.1743 C.3     1  UNL1        0.0933
      5 C         140.0662  144.1471  157.8997 C.3     1  UNL1        0.0578
      6 C         138.9559  143.7086  156.9915 C.3     1  UNL1        0.0187
      7 C         138.5325  144.5827  155.8483 C.3     1  UNL1        0.0326
      8 C         139.2194  145.8953  155.6134 C.3     1  UNL1        0.1085
      9 O         138.2281  145.9149  154.4879 O.3     1  UNL1       -0.3826
     10 C         140.3297  146.3339  156.5216 C.3     1  UNL1        0.0326
     11 C         140.7531  145.4598  157.6647 C.3     1  UNL1        0.0187
     12 H         137.6957  145.1044  154.5117 H       1  UNL1        0.2107
     13 C         139.5620  147.2147  154.9876 C.ar    1  UNL1        0.0211
     14 C         138.9292  148.4746  155.4998 C.ar    1  UNL1        0.0043
     15 C         139.2718  149.7941  154.8741 C.ar    1  UNL1        0.0575
     16 C         140.2472  149.8537  153.7360 C.ar    1  UNL1        0.2247
     17 N         140.8800  148.5939  153.2238 N.ar    1  UNL1       -0.2104
     18 C         140.5374  147.2743  153.8496 C.ar    1  UNL1        0.1000
     19 O         140.5898  151.1731  153.1103 O.3     1  UNL1       -0.4640
     20 C         141.9970  151.6889  153.1703 C.3     1  UNL1        0.1676
     21 C         143.0280  152.0787  152.1529 C.3     1  UNL1        0.0437
     22 C         143.9872  152.4184  153.2549 C.3     1  UNL1        0.0074
     23 C         142.9562  152.0287  154.2723 C.3     1  UNL1        0.0437
     24 O         143.6627  142.5903  162.0973 O.2     1  UNL1       -0.2733
     25 C         142.7990  141.4397  162.5215 C.2     1  UNL1        0.2426
     26 N         141.5120  141.1630  161.8026 N.am    1  UNL1       -0.3018
     27 H         140.9451  140.4078  162.0811 H       1  UNL1        0.1495
     28 C         143.2224  140.5656  163.6646 C.3     1  UNL1        0.1759
     29 N         142.7796  140.8898  165.0607 N.am    1  UNL1       -0.2931
     30 C         143.0505  139.9248  166.1766 C.2     1  UNL1        0.2462
     31 O         143.7642  138.6356  165.8965 O.2     1  UNL1       -0.2701
     32 H         142.3111  141.7360  165.2445 H       1  UNL1        0.1502
     33 C         142.6076  140.2490  167.5726 C.ar    1  UNL1        0.0533
     34 C         142.6524  139.1938  168.6377 C.ar    1  UNL1        0.0045
     35 C         142.2096  139.5180  170.0337 C.ar    1  UNL1        0.0001
     36 C         141.7220  140.8974  170.3645 C.ar    1  UNL1        0.0039
     37 C         141.6772  141.9526  169.2994 C.ar    1  UNL1        0.0716
     38 C         142.1201  141.6284  167.9035 C.ar    1  UNL1        0.0084
     39 C         141.1896  143.3321  169.6303 C.3     1  UNL1        0.4186
     40 F         140.7020  144.7115  169.9611 F       1  UNL1       -0.1659
     41 F         142.4260  143.5738  170.4445 F       1  UNL1       -0.1659
     42 F         139.9532  143.0903  168.8161 F       1  UNL1       -0.1659
@<TRIPOS>BOND
     1    24    25    2
     2    25    28    1
     3    28    29    1
     4    29    30   am
     5    30    31    2
     6    30    33    1
     7    33    34   ar
     8    34    35   ar
     9    35    36   ar
    10    36    37   ar
    11    37    39    1
    12    39    40    1
    13    39    41    1
    14    39    42    1
    15    37    38   ar
    16    25    26   am
    17    26     1    1
    18     1     2    1
    19     2     3    1
    20     5     3    1
    21     5     6    1
    22     6     7    1
    23     7     8    1
    24     8     9    1
    25     8    13    1
    26    13    14   ar
    27    14    15   ar
    28    15    16   ar
    29    16    19    1
    30    19    20    1
    31    20    21    1
    32    21    22    1
    33    22    23    1
    34    16    17   ar
    35    17    18   ar
    36     8    10    1
    37    10    11    1
    38     3     4    1
    39    38    33   ar
    40     4     1    1
    41    11     5    1
    42    18    13   ar
    43    23    20    1
    44    29    32    1
    45    26    27    1
    46     9    12    1
