@<TRIPOS>MOLECULE
*****
 29 32 0 0 0
SMALL
GASTEIGER

@<TRIPOS>ATOM
      1 N         144.0694  139.9717  164.1741 N.3     1  UNL1       -0.2700
      2 C         143.5653  139.2485  162.9605 C.3     1  UNL1        0.0897
      3 C         142.4208  138.2866  163.0822 C.3     1  UNL1        0.0897
      4 N         141.7804  138.0479  164.4175 N.3     1  UNL1       -0.2700
      5 C         142.2846  138.7711  165.6311 C.3     1  UNL1        0.0897
      6 C         143.4291  139.7330  165.5094 C.3     1  UNL1        0.0897
      7 C         145.2139  140.9337  164.0524 C.3     1  UNL1        0.0769
      8 C         145.0229  142.3765  164.4154 C.3     1  UNL1        0.0437
      9 C         141.6313  144.7202  162.6116 C.ar    1  UNL1        0.0958
     10 C         142.8461  144.4057  161.7898 C.ar    1  UNL1        0.0122
     11 C         143.9766  143.6245  162.3911 C.ar    1  UNL1       -0.0034
     12 C         143.8923  143.1577  163.8142 C.ar    1  UNL1       -0.0185
     13 C         142.6775  143.4722  164.6359 C.ar    1  UNL1        0.0261
     14 C         141.5469  144.2534  164.0346 C.ar    1  UNL1        0.1493
     15 F         140.3321  144.5679  164.8563 F       1  UNL1       -0.2035
     16 N         139.3702  146.2827  161.4089 N.1     1  UNL1       -0.1908
     17 C         140.5007  145.5015  162.0103 C.1     1  UNL1        0.1027
     18 C         140.6359  137.0859  164.5392 C.3     1  UNL1        0.0769
     19 C         139.2478  137.5989  164.7836 C.3     1  UNL1        0.0437
     20 C         138.8788  138.9920  164.3671 C.ar    1  UNL1       -0.0210
     21 C         138.7159  140.0658  165.4017 C.ar    1  UNL1       -0.0040
     22 C         138.3469  141.4587  164.9852 C.ar    1  UNL1        0.0059
     23 C         138.1408  141.7778  163.5341 C.ar    1  UNL1        0.0751
     24 C         138.3038  140.7040  162.4995 C.ar    1  UNL1        0.0272
     25 C         138.6727  139.3111  162.9160 C.ar    1  UNL1       -0.0047
     26 C         138.0384  141.3123  161.1543 C.3     1  UNL1        0.2356
     27 O         137.7114  142.7621  161.3575 O.3     1  UNL1       -0.4404
     28 C         137.7747  143.0499  162.8283 C.2     1  UNL1        0.3413
     29 O         137.5172  144.3766  163.4790 O.2     1  UNL1       -0.2449
@<TRIPOS>BOND
     1    16    17    3
     2    17     9    1
     3     9    10   ar
     4    10    11   ar
     5    11    12   ar
     6    12     8    1
     7     8     7    1
     8     7     1    1
     9     1     2    1
    10     2     3    1
    11     3     4    1
    12     4    18    1
    13    18    19    1
    14    19    20    1
    15    20    21   ar
    16    21    22   ar
    17    22    23   ar
    18    23    24   ar
    19    24    25   ar
    20    24    26    1
    21    26    27    1
    22    27    28    1
    23    28    29    2
    24     4     5    1
    25     5     6    1
    26    12    13   ar
    27    13    14   ar
    28    14    15    1
    29    14     9   ar
    30     6     1    1
    31    25    20   ar
    32    28    23    1
@<TRIPOS>MOLECULE
*****
 29 32 0 0 0
SMALL
GASTEIGER

@<TRIPOS>ATOM
      1 N         142.2177  138.5964  164.4633 N.3     1  UNL1       -0.2700
      2 C         140.9642  137.9182  164.9311 C.3     1  UNL1        0.0897
      3 C         139.8398  137.6739  163.9688 C.3     1  UNL1        0.0897
      4 N         139.9689  138.1078  162.5387 N.3     1  UNL1       -0.2700
      5 C         141.2224  138.7860  162.0710 C.3     1  UNL1        0.0897
      6 C         142.3467  139.0303  163.0333 C.3     1  UNL1        0.0897
      7 C         143.3421  138.8408  165.4256 C.3     1  UNL1        0.0769
      8 C         143.0846  138.8115  166.9030 C.3     1  UNL1        0.0437
      9 C         141.2620  142.3860  168.9404 C.ar    1  UNL1        0.0958
     10 C         141.9990  141.3581  169.7467 C.ar    1  UNL1        0.0122
     11 C         142.6065  140.1666  169.0676 C.ar    1  UNL1       -0.0034
     12 C         142.4771  140.0030  167.5821 C.ar    1  UNL1       -0.0185
     13 C         141.7401  141.0310  166.7758 C.ar    1  UNL1        0.0261
     14 C         141.1325  142.2225  167.4550 C.ar    1  UNL1        0.1493
     15 F         140.3955  143.2505  166.6487 F       1  UNL1       -0.2035
     16 N         140.0469  144.7691  170.2987 N.1     1  UNL1       -0.1908
     17 C         140.6544  143.5776  169.6196 C.1     1  UNL1        0.1027
     18 C         138.8445  137.8635  161.5764 C.3     1  UNL1        0.0769
     19 C         137.6676  138.7930  161.5465 C.3     1  UNL1        0.0437
     20 C         137.8661  140.2621  161.7758 C.ar    1  UNL1       -0.0210
     21 C         138.2568  141.1532  160.6343 C.ar    1  UNL1       -0.0040
     22 C         138.4553  142.6222  160.8635 C.ar    1  UNL1        0.0059
     23 C         138.2630  143.2000  162.2343 C.ar    1  UNL1        0.0751
     24 C         137.8722  142.3089  163.3759 C.ar    1  UNL1        0.0272
     25 C         137.6737  140.8399  163.1466 C.ar    1  UNL1       -0.0047
     26 C         137.7549  143.1575  164.6072 C.3     1  UNL1        0.2356
     27 O         138.0731  144.5731  164.2266 O.3     1  UNL1       -0.4404
     28 C         138.3872  144.5994  162.7601 C.2     1  UNL1        0.3413
     29 O         138.7599  145.8121  161.9599 O.2     1  UNL1       -0.2449
@<TRIPOS>BOND
     1    16    17    3
     2    17     9    1
     3     9    10   ar
     4    10    11   ar
     5    11    12   ar
     6    12     8    1
     7     8     7    1
     8     7     1    1
     9     1     2    1
    10     2     3    1
    11     3     4    1
    12     4    18    1
    13    18    19    1
    14    19    20    1
    15    20    21   ar
    16    21    22   ar
    17    22    23   ar
    18    23    24   ar
    19    24    25   ar
    20    24    26    1
    21    26    27    1
    22    27    28    1
    23    28    29    2
    24     4     5    1
    25     5     6    1
    26    12    13   ar
    27    13    14   ar
    28    14    15    1
    29    14     9   ar
    30     6     1    1
    31    25    20   ar
    32    28    23    1
@<TRIPOS>MOLECULE
*****
 29 32 0 0 0
SMALL
GASTEIGER

@<TRIPOS>ATOM
      1 N         139.9123  137.9688  164.3920 N.3     1  UNL1       -0.2700
      2 C         141.2861  138.1036  164.9787 C.3     1  UNL1        0.0897
      3 C         142.4875  138.1134  164.0806 C.3     1  UNL1        0.0897
      4 N         142.3150  137.9885  162.5958 N.3     1  UNL1       -0.2700
      5 C         140.9411  137.8537  162.0091 C.3     1  UNL1        0.0897
      6 C         139.7397  137.8439  162.9072 C.3     1  UNL1        0.0897
      7 C         138.7108  137.9590  165.2901 C.3     1  UNL1        0.0769
      8 C         138.1762  139.2473  165.8416 C.3     1  UNL1        0.0437
      9 C         138.7365  143.0799  163.5510 C.ar    1  UNL1        0.0958
     10 C         137.7513  142.0561  163.0703 C.ar    1  UNL1        0.0122
     11 C         137.5645  140.7786  163.8338 C.ar    1  UNL1       -0.0034
     12 C         138.3630  140.5248  165.0781 C.ar    1  UNL1       -0.0185
     13 C         139.3482  141.5487  165.5588 C.ar    1  UNL1        0.0261
     14 C         139.5349  142.8263  164.7952 C.ar    1  UNL1        0.1493
     15 F         140.5202  143.8501  165.2759 F       1  UNL1       -0.2035
     16 N         139.1101  145.6350  162.0238 N.1     1  UNL1       -0.1908
     17 C         138.9233  144.3575  162.7873 C.1     1  UNL1        0.1027
     18 C         143.5164  137.9983  161.6977 C.3     1  UNL1        0.0769
     19 C         144.0829  139.3014  161.2172 C.3     1  UNL1        0.0437
     20 C         144.2117  140.4578  162.1638 C.ar    1  UNL1       -0.0210
     21 C         145.1454  140.3685  163.3344 C.ar    1  UNL1       -0.0040
     22 C         145.2741  141.5249  164.2810 C.ar    1  UNL1        0.0059
     23 C         144.4692  142.7707  164.0570 C.ar    1  UNL1        0.0751
     24 C         143.5355  142.8600  162.8865 C.ar    1  UNL1        0.0272
     25 C         143.4068  141.7036  161.9399 C.ar    1  UNL1       -0.0047
     26 C         142.8758  144.2066  162.9216 C.3     1  UNL1        0.2356
     27 O         143.4017  144.9496  164.1138 O.3     1  UNL1       -0.4404
     28 C         144.3865  144.0621  164.8156 C.2     1  UNL1        0.3413
     29 O         145.1538  144.4057  166.0578 O.2     1  UNL1       -0.2449
@<TRIPOS>BOND
     1    16    17    3
     2    17     9    1
     3     9    10   ar
     4    10    11   ar
     5    11    12   ar
     6    12     8    1
     7     8     7    1
     8     7     1    1
     9     1     2    1
    10     2     3    1
    11     3     4    1
    12     4    18    1
    13    18    19    1
    14    19    20    1
    15    20    21   ar
    16    21    22   ar
    17    22    23   ar
    18    23    24   ar
    19    24    25   ar
    20    24    26    1
    21    26    27    1
    22    27    28    1
    23    28    29    2
    24     4     5    1
    25     5     6    1
    26    12    13   ar
    27    13    14   ar
    28    14    15    1
    29    14     9   ar
    30     6     1    1
    31    25    20   ar
    32    28    23    1
@<TRIPOS>MOLECULE
*****
 29 32 0 0 0
SMALL
GASTEIGER

@<TRIPOS>ATOM
      1 N         138.1787  143.2706  163.1002 N.3     1  UNL1       -0.2700
      2 C         138.6349  143.0620  161.6866 C.3     1  UNL1        0.0897
      3 C         138.4669  141.7218  161.0344 C.3     1  UNL1        0.0897
      4 N         137.8425  140.5902  161.7957 N.3     1  UNL1       -0.2700
      5 C         137.3863  140.7988  163.2093 C.3     1  UNL1        0.0897
      6 C         137.5543  142.1390  163.8615 C.3     1  UNL1        0.0897
      7 C         138.3467  144.6109  163.7526 C.3     1  UNL1        0.0769
      8 C         139.4860  144.8467  164.6993 C.3     1  UNL1        0.0437
      9 C         143.4848  142.9321  163.9286 C.ar    1  UNL1        0.0958
     10 C         142.4047  142.1587  164.6252 C.ar    1  UNL1        0.0122
     11 C         141.0718  142.7968  164.8821 C.ar    1  UNL1       -0.0034
     12 C         140.8189  144.2085  164.4424 C.ar    1  UNL1       -0.0185
     13 C         141.8990  144.9819  163.7458 C.ar    1  UNL1        0.0261
     14 C         143.2319  144.3437  163.4889 C.ar    1  UNL1        0.1493
     15 F         144.3120  145.1171  162.7923 F       1  UNL1       -0.2035
     16 N         146.1507  141.6557  163.4148 N.1     1  UNL1       -0.1908
     17 C         144.8177  142.2938  163.6717 C.1     1  UNL1        0.1027
     18 C         137.6745  139.2499  161.1434 C.3     1  UNL1        0.0769
     19 C         138.2232  138.0201  161.8041 C.3     1  UNL1        0.0437
     20 C         139.4137  138.1236  162.7109 C.ar    1  UNL1       -0.0210
     21 C         139.2642  137.8530  164.1786 C.ar    1  UNL1       -0.0040
     22 C         140.4546  137.9565  165.0853 C.ar    1  UNL1        0.0059
     23 C         141.7945  138.3307  164.5243 C.ar    1  UNL1        0.0751
     24 C         141.9439  138.6013  163.0565 C.ar    1  UNL1        0.0272
     25 C         140.7535  138.4978  162.1498 C.ar    1  UNL1       -0.0047
     26 C         143.3794  138.9473  162.7928 C.3     1  UNL1        0.2356
     27 O         144.1172  138.8904  164.0976 O.3     1  UNL1       -0.4404
     28 C         143.1377  138.5093  165.1677 C.2     1  UNL1        0.3413
     29 O         143.4470  138.3371  166.6253 O.2     1  UNL1       -0.2449
@<TRIPOS>BOND
     1    16    17    3
     2    17     9    1
     3     9    10   ar
     4    10    11   ar
     5    11    12   ar
     6    12     8    1
     7     8     7    1
     8     7     1    1
     9     1     2    1
    10     2     3    1
    11     3     4    1
    12     4    18    1
    13    18    19    1
    14    19    20    1
    15    20    21   ar
    16    21    22   ar
    17    22    23   ar
    18    23    24   ar
    19    24    25   ar
    20    24    26    1
    21    26    27    1
    22    27    28    1
    23    28    29    2
    24     4     5    1
    25     5     6    1
    26    12    13   ar
    27    13    14   ar
    28    14    15    1
    29    14     9   ar
    30     6     1    1
    31    25    20   ar
    32    28    23    1
@<TRIPOS>MOLECULE
*****
 29 32 0 0 0
SMALL
GASTEIGER

@<TRIPOS>ATOM
      1 N         143.8919  139.2617  162.0755 N.3     1  UNL1       -0.2700
      2 C         144.3089  139.1826  163.5142 C.3     1  UNL1        0.0897
      3 C         144.7655  140.4181  164.2317 C.3     1  UNL1        0.0897
      4 N         144.8051  141.7328  163.5105 N.3     1  UNL1       -0.2700
      5 C         144.3881  141.8119  162.0719 C.3     1  UNL1        0.0897
      6 C         143.9315  140.5763  161.3544 C.3     1  UNL1        0.0897
      7 C         143.4352  138.0261  161.3580 C.3     1  UNL1        0.0769
      8 C         141.9696  137.7512  161.1962 C.3     1  UNL1        0.0437
      9 C         139.1982  138.1799  164.7155 C.ar    1  UNL1        0.0958
     10 C         140.3574  137.2304  164.7850 C.ar    1  UNL1        0.0122
     11 C         141.2812  137.0875  163.6119 C.ar    1  UNL1       -0.0034
     12 C         141.0458  137.8941  162.3693 C.ar    1  UNL1       -0.0185
     13 C         139.8866  138.8436  162.2998 C.ar    1  UNL1        0.0261
     14 C         138.9628  138.9864  163.4730 C.ar    1  UNL1        0.1493
     15 F         137.8036  139.9359  163.4035 F       1  UNL1       -0.2035
     16 N         137.3506  138.4656  167.0617 N.1     1  UNL1       -0.1908
     17 C         138.2744  138.3227  165.8887 C.1     1  UNL1        0.1027
     18 C         145.2618  142.9684  164.2281 C.3     1  UNL1        0.0769
     19 C         144.2809  143.7822  165.0188 C.3     1  UNL1        0.0437
     20 C         142.8557  143.8896  164.5631 C.ar    1  UNL1       -0.0210
     21 C         141.8158  142.9691  165.1298 C.ar    1  UNL1       -0.0040
     22 C         140.3907  143.0766  164.6741 C.ar    1  UNL1        0.0059
     23 C         140.0057  144.1045  163.6518 C.ar    1  UNL1        0.0751
     24 C         141.0456  145.0249  163.0851 C.ar    1  UNL1        0.0272
     25 C         142.4707  144.9175  163.5408 C.ar    1  UNL1       -0.0047
     26 C         140.3731  145.9327  162.0985 C.3     1  UNL1        0.2356
     27 O         138.9174  145.5733  162.0553 O.3     1  UNL1       -0.4404
     28 C         138.6903  144.4434  163.0153 C.2     1  UNL1        0.3413
     29 O         137.3783  143.7705  163.2905 O.2     1  UNL1       -0.2449
@<TRIPOS>BOND
     1    16    17    3
     2    17     9    1
     3     9    10   ar
     4    10    11   ar
     5    11    12   ar
     6    12     8    1
     7     8     7    1
     8     7     1    1
     9     1     2    1
    10     2     3    1
    11     3     4    1
    12     4    18    1
    13    18    19    1
    14    19    20    1
    15    20    21   ar
    16    21    22   ar
    17    22    23   ar
    18    23    24   ar
    19    24    25   ar
    20    24    26    1
    21    26    27    1
    22    27    28    1
    23    28    29    2
    24     4     5    1
    25     5     6    1
    26    12    13   ar
    27    13    14   ar
    28    14    15    1
    29    14     9   ar
    30     6     1    1
    31    25    20   ar
    32    28    23    1
@<TRIPOS>MOLECULE
*****
 29 32 0 0 0
SMALL
GASTEIGER

@<TRIPOS>ATOM
      1 N         141.5905  138.1816  164.3697 N.3     1  UNL1       -0.2700
      2 C         140.2028  137.6400  164.5455 C.3     1  UNL1        0.0897
      3 C         139.2003  137.7717  163.4376 C.3     1  UNL1        0.0897
      4 N         139.5855  138.4451  162.1538 N.3     1  UNL1       -0.2700
      5 C         140.9732  138.9867  161.9779 C.3     1  UNL1        0.0897
      6 C         141.9756  138.8550  163.0859 C.3     1  UNL1        0.0897
      7 C         142.5930  138.0499  165.4777 C.3     1  UNL1        0.0769
      8 C         143.1949  139.2777  166.0945 C.3     1  UNL1        0.0437
      9 C         140.8619  141.6468  169.1267 C.ar    1  UNL1        0.0958
     10 C         141.6235  140.4268  169.5528 C.ar    1  UNL1        0.0122
     11 C         142.4012  139.6371  168.5421 C.ar    1  UNL1       -0.0034
     12 C         142.4172  140.0674  167.1052 C.ar    1  UNL1       -0.0185
     13 C         141.6555  141.2873  166.6790 C.ar    1  UNL1        0.0261
     14 C         140.8779  142.0770  167.6898 C.ar    1  UNL1        0.1493
     15 F         140.1162  143.2970  167.2637 F       1  UNL1       -0.2035
     16 N         139.3066  143.2262  171.1482 N.1     1  UNL1       -0.1908
     17 C         140.0842  142.4365  170.1375 C.1     1  UNL1        0.1027
     18 C         138.5830  138.5768  161.0458 C.3     1  UNL1        0.0769
     19 C         137.6102  139.7185  161.0463 C.3     1  UNL1        0.0437
     20 C         137.8860  140.9385  161.8744 C.ar    1  UNL1       -0.0210
     21 C         137.3988  141.0090  163.2913 C.ar    1  UNL1       -0.0040
     22 C         137.6747  142.2289  164.1194 C.ar    1  UNL1        0.0059
     23 C         138.4377  143.3782  163.5306 C.ar    1  UNL1        0.0751
     24 C         138.9249  143.3077  162.1137 C.ar    1  UNL1        0.0272
     25 C         138.6491  142.0879  161.2856 C.ar    1  UNL1       -0.0047
     26 C         139.6459  144.5869  161.8073 C.3     1  UNL1        0.2356
     27 O         139.6043  145.4480  163.0348 O.3     1  UNL1       -0.4404
     28 C         138.8576  144.7010  164.0999 C.2     1  UNL1        0.3413
     29 O         138.5795  145.1908  165.4901 O.2     1  UNL1       -0.2449
@<TRIPOS>BOND
     1    16    17    3
     2    17     9    1
     3     9    10   ar
     4    10    11   ar
     5    11    12   ar
     6    12     8    1
     7     8     7    1
     8     7     1    1
     9     1     2    1
    10     2     3    1
    11     3     4    1
    12     4    18    1
    13    18    19    1
    14    19    20    1
    15    20    21   ar
    16    21    22   ar
    17    22    23   ar
    18    23    24   ar
    19    24    25   ar
    20    24    26    1
    21    26    27    1
    22    27    28    1
    23    28    29    2
    24     4     5    1
    25     5     6    1
    26    12    13   ar
    27    13    14   ar
    28    14    15    1
    29    14     9   ar
    30     6     1    1
    31    25    20   ar
    32    28    23    1
@<TRIPOS>MOLECULE
*****
 29 32 0 0 0
SMALL
GASTEIGER

@<TRIPOS>ATOM
      1 N         137.8705  140.3345  161.9989 N.3     1  UNL1       -0.2700
      2 C         138.0583  141.6308  161.2680 C.3     1  UNL1        0.0897
      3 C         138.0358  142.9271  162.0223 C.3     1  UNL1        0.0897
      4 N         137.8254  142.9271  163.5075 N.3     1  UNL1       -0.2700
      5 C         137.6376  141.6308  164.2384 C.3     1  UNL1        0.0897
      6 C         137.6602  140.3345  163.4841 C.3     1  UNL1        0.0897
      7 C         137.8931  139.0381  161.2446 C.3     1  UNL1        0.0769
      8 C         139.1742  138.2690  161.1132 C.3     1  UNL1        0.0437
      9 C         142.0814  138.1370  164.5455 C.ar    1  UNL1        0.0958
     10 C         140.7647  137.4260  164.6500 C.ar    1  UNL1        0.0122
     11 C         139.7957  137.4700  163.5059 C.ar    1  UNL1       -0.0034
     12 C         140.1432  138.2250  162.2572 C.ar    1  UNL1       -0.0185
     13 C         141.4599  138.9360  162.1527 C.ar    1  UNL1        0.0261
     14 C         142.4289  138.8920  163.2968 C.ar    1  UNL1        0.1493
     15 F         143.7456  139.6030  163.1923 F       1  UNL1       -0.2035
     16 N         144.0195  138.0490  166.8337 N.1     1  UNL1       -0.1908
     17 C         143.0504  138.0930  165.6896 C.1     1  UNL1        0.1027
     18 C         137.8029  144.2235  164.2618 C.3     1  UNL1        0.0769
     19 C         138.9295  144.5715  165.1889 C.3     1  UNL1        0.0437
     20 C         140.3163  144.0761  164.9030 C.ar    1  UNL1       -0.0210
     21 C         140.9066  142.9770  165.7358 C.ar    1  UNL1       -0.0040
     22 C         142.2933  142.4817  165.4499 C.ar    1  UNL1        0.0059
     23 C         143.0896  143.0855  164.3313 C.ar    1  UNL1        0.0751
     24 C         142.4993  144.1846  163.4986 C.ar    1  UNL1        0.0272
     25 C         141.1127  144.6799  163.7844 C.ar    1  UNL1       -0.0047
     26 C         143.5156  144.5838  162.4701 C.3     1  UNL1        0.2356
     27 O         144.7341  143.7314  162.6672 O.3     1  UNL1       -0.4404
     28 C         144.4708  142.8054  163.8175 C.2     1  UNL1        0.3413
     29 O         145.4217  141.7794  164.3589 O.2     1  UNL1       -0.2449
@<TRIPOS>BOND
     1    16    17    3
     2    17     9    1
     3     9    10   ar
     4    10    11   ar
     5    11    12   ar
     6    12     8    1
     7     8     7    1
     8     7     1    1
     9     1     2    1
    10     2     3    1
    11     3     4    1
    12     4    18    1
    13    18    19    1
    14    19    20    1
    15    20    21   ar
    16    21    22   ar
    17    22    23   ar
    18    23    24   ar
    19    24    25   ar
    20    24    26    1
    21    26    27    1
    22    27    28    1
    23    28    29    2
    24     4     5    1
    25     5     6    1
    26    12    13   ar
    27    13    14   ar
    28    14    15    1
    29    14     9   ar
    30     6     1    1
    31    25    20   ar
    32    28    23    1
@<TRIPOS>MOLECULE
*****
 29 32 0 0 0
SMALL
GASTEIGER

@<TRIPOS>ATOM
      1 N         139.7456  138.2198  162.7158 N.3     1  UNL1       -0.2700
      2 C         139.5488  138.2154  164.2028 C.3     1  UNL1        0.0897
      3 C         140.7148  138.4594  165.1143 C.3     1  UNL1        0.0897
      4 N         142.0776  138.7076  164.5388 N.3     1  UNL1       -0.2700
      5 C         142.2744  138.7120  163.0518 C.3     1  UNL1        0.0897
      6 C         141.1084  138.4681  162.1403 C.3     1  UNL1        0.0897
      7 C         138.5796  137.9759  161.8042 C.3     1  UNL1        0.0769
      8 C         137.5982  139.0768  161.5308 C.3     1  UNL1        0.0437
      9 C         138.9043  143.3744  161.8039 C.ar    1  UNL1        0.0958
     10 C         139.3950  142.5114  160.6793 C.ar    1  UNL1        0.0122
     11 C         138.9596  141.0789  160.5883 C.ar    1  UNL1       -0.0034
     12 C         138.0335  140.5093  161.6218 C.ar    1  UNL1       -0.0185
     13 C         137.5429  141.3723  162.7463 C.ar    1  UNL1        0.0261
     14 C         137.9783  142.8049  162.8373 C.ar    1  UNL1        0.1493
     15 F         137.4877  143.6679  163.9619 F       1  UNL1       -0.2035
     16 N         139.7751  146.2395  161.9859 N.1     1  UNL1       -0.1908
     17 C         139.3398  144.8070  161.8949 C.1     1  UNL1        0.1027
     18 C         143.2436  138.9516  165.4504 C.3     1  UNL1        0.0769
     19 C         143.0802  138.8010  166.9338 C.3     1  UNL1        0.0437
     20 C         142.4633  139.9078  167.7367 C.ar    1  UNL1       -0.0210
     21 C         142.2203  141.2466  167.1055 C.ar    1  UNL1       -0.0040
     22 C         141.6034  142.3533  167.9083 C.ar    1  UNL1        0.0059
     23 C         141.2295  142.1212  169.3423 C.ar    1  UNL1        0.0751
     24 C         141.4726  140.7824  169.9735 C.ar    1  UNL1        0.0272
     25 C         142.0895  139.6757  169.1707 C.ar    1  UNL1       -0.0047
     26 C         141.0037  140.8490  171.3967 C.3     1  UNL1        0.2356
     27 O         140.4708  142.2290  171.6452 O.3     1  UNL1       -0.4404
     28 C         140.6104  143.0153  170.3755 C.2     1  UNL1        0.3413
     29 O         140.2025  144.4446  170.1742 O.2     1  UNL1       -0.2449
@<TRIPOS>BOND
     1    16    17    3
     2    17     9    1
     3     9    10   ar
     4    10    11   ar
     5    11    12   ar
     6    12     8    1
     7     8     7    1
     8     7     1    1
     9     1     2    1
    10     2     3    1
    11     3     4    1
    12     4    18    1
    13    18    19    1
    14    19    20    1
    15    20    21   ar
    16    21    22   ar
    17    22    23   ar
    18    23    24   ar
    19    24    25   ar
    20    24    26    1
    21    26    27    1
    22    27    28    1
    23    28    29    2
    24     4     5    1
    25     5     6    1
    26    12    13   ar
    27    13    14   ar
    28    14    15    1
    29    14     9   ar
    30     6     1    1
    31    25    20   ar
    32    28    23    1
@<TRIPOS>MOLECULE
*****
 29 32 0 0 0
SMALL
GASTEIGER

@<TRIPOS>ATOM
      1 N         138.6632  144.0525  162.9053 N.3     1  UNL1       -0.2700
      2 C         138.6073  142.8131  162.0622 C.3     1  UNL1        0.0897
      3 C         138.4396  141.4714  162.7115 C.3     1  UNL1        0.0897
      4 N         138.3277  141.3690  164.2038 N.3     1  UNL1       -0.2700
      5 C         138.3836  142.6084  165.0469 C.3     1  UNL1        0.0897
      6 C         138.5514  143.9501  164.3976 C.3     1  UNL1        0.0897
      7 C         138.8310  145.3943  162.2561 C.3     1  UNL1        0.0769
      8 C         140.2057  145.9405  162.0073 C.3     1  UNL1        0.0437
      9 C         143.8180  143.3552  162.7262 C.ar    1  UNL1        0.0958
     10 C         143.1554  143.3606  161.3805 C.ar    1  UNL1        0.0122
     11 C         141.9513  144.2224  161.1409 C.ar    1  UNL1       -0.0034
     12 C         141.4098  145.0788  162.2470 C.ar    1  UNL1       -0.0185
     13 C         142.0724  145.0734  163.5927 C.ar    1  UNL1        0.0261
     14 C         143.2765  144.2115  163.8323 C.ar    1  UNL1        0.1493
     15 F         143.9391  144.2061  165.1780 F       1  UNL1       -0.2035
     16 N         146.2262  141.6316  163.2055 N.1     1  UNL1       -0.1908
     17 C         145.0222  142.4934  162.9658 C.1     1  UNL1        0.1027
     18 C         138.1600  140.0272  164.8530 C.3     1  UNL1        0.0769
     19 C         139.2952  139.4188  165.6217 C.3     1  UNL1        0.0437
     20 C         139.7266  140.0220  166.9256 C.ar    1  UNL1       -0.0210
     21 C         138.8820  139.8405  168.1519 C.ar    1  UNL1       -0.0040
     22 C         139.3134  140.4437  169.4557 C.ar    1  UNL1        0.0059
     23 C         140.5894  141.2285  169.5332 C.ar    1  UNL1        0.0751
     24 C         141.4340  141.4101  168.3070 C.ar    1  UNL1        0.0272
     25 C         141.0026  140.8068  167.0032 C.ar    1  UNL1       -0.0047
     26 C         142.6325  142.2283  168.6866 C.3     1  UNL1        0.2356
     27 O         142.5286  142.5525  170.1475 O.3     1  UNL1       -0.4404
     28 C         141.2659  141.9346  170.6708 C.2     1  UNL1        0.3413
     29 O         140.7673  142.0096  172.0835 O.2     1  UNL1       -0.2449
@<TRIPOS>BOND
     1    16    17    3
     2    17     9    1
     3     9    10   ar
     4    10    11   ar
     5    11    12   ar
     6    12     8    1
     7     8     7    1
     8     7     1    1
     9     1     2    1
    10     2     3    1
    11     3     4    1
    12     4    18    1
    13    18    19    1
    14    19    20    1
    15    20    21   ar
    16    21    22   ar
    17    22    23   ar
    18    23    24   ar
    19    24    25   ar
    20    24    26    1
    21    26    27    1
    22    27    28    1
    23    28    29    2
    24     4     5    1
    25     5     6    1
    26    12    13   ar
    27    13    14   ar
    28    14    15    1
    29    14     9   ar
    30     6     1    1
    31    25    20   ar
    32    28    23    1
