@<TRIPOS>MOLECULE
*****
 35 38 0 0 0
SMALL
GASTEIGER

@<TRIPOS>ATOM
      1 C         142.1257  140.1271  164.4153 C.2     1  UNL1        0.1397
      2 C         142.6368  140.4228  163.0365 C.2     1  UNL1        0.1355
      3 N         142.2052  141.6730  162.3288 N.pl3   1  UNL1       -0.1998
      4 C         141.2626  142.6274  163.0000 C.2     1  UNL1        0.3442
      5 N         140.7515  142.3316  164.3788 N.2     1  UNL1       -0.0580
      6 C         141.1831  141.0815  165.0865 C.3     1  UNL1        0.2692
      7 H         142.5407  141.8672  161.4238 H       1  UNL1        0.2983
      8 C         140.6719  140.7857  166.4654 C.ar    1  UNL1        0.0371
      9 C         139.3972  140.0154  166.6435 C.ar    1  UNL1        0.0030
     10 C         138.8861  139.7196  168.0224 C.ar    1  UNL1        0.0295
     11 C         139.6497  140.1942  169.2232 C.ar    1  UNL1        0.1406
     12 F         139.1385  139.8984  170.6020 F       1  UNL1       -0.2042
     13 C         140.9244  140.9645  169.0450 C.ar    1  UNL1        0.0362
     14 C         141.4355  141.2602  167.6661 C.ar    1  UNL1        0.0372
     15 BR        142.7102  142.0305  167.4880 Br      1  UNL1       -0.0491
     16 C         140.8311  143.8776  162.2923 C.ar    1  UNL1        0.1931
     17 N         140.2270  145.0908  162.9351 N.ar    1  UNL1       -0.2297
     18 C         139.9504  146.0971  161.8577 C.ar    1  UNL1        0.1067
     19 C         140.3835  145.5058  160.5489 C.ar    1  UNL1        0.0577
     20 S         140.9278  144.1341  160.8176 S.2     1  UNL1       -0.0586
     21 C         142.5573  138.8769  165.1230 C.2     1  UNL1        0.3447
     22 O         143.8308  138.8651  165.9154 O.2     1  UNL1       -0.2450
     23 O         141.7153  137.6384  165.0383 O.3     1  UNL1       -0.4455
     24 C         139.4080  137.6281  163.8440 C.3     1  UNL1        0.0513
     25 C         140.8866  137.3771  163.8156 C.3     1  UNL1        0.2089
     26 C         143.5795  139.4684  162.3652 C.3     1  UNL1        0.1405
     27 N         143.4579  139.2046  160.8937 N.3     1  UNL1       -0.2614
     28 C         142.7276  137.9879  160.4077 C.3     1  UNL1        0.1050
     29 C         142.6060  137.7241  158.9360 C.3     1  UNL1        0.1599
     30 O         143.2149  138.6769  157.9504 O.3     1  UNL1       -0.3478
     31 C         143.9452  139.8936  158.4365 C.3     1  UNL1        0.1671
     32 C         144.0668  140.1575  159.9080 C.3     1  UNL1        0.1082
     33 C         144.5540  140.8465  157.4509 C.2     1  UNL1        0.0787
     34 O         145.4981  140.3387  156.4016 O.co2   1  UNL1       -0.5467
     35 O         144.2188  142.3072  157.5146 O.co2   1  UNL1       -0.5467
@<TRIPOS>UNITY_ATOM_ATTR
34 1
charge -1
@<TRIPOS>BOND
     1    24    25    1
     2    25    23    1
     3    23    21    1
     4    21    22    2
     5    21     1    1
     6     1     2    2
     7     2    26    1
     8    26    27    1
     9    27    28    1
    10    28    29    1
    11    29    30    1
    12    30    31    1
    13    31    33    1
    14    33    34   ar
    15    33    35   ar
    16    31    32    1
    17     2     3    1
    18     3     4    1
    19     4    16    1
    20    16    17   ar
    21    17    18   ar
    22    18    19   ar
    23    19    20   ar
    24     4     5    2
    25     5     6    1
    26     6     8    1
    27     8     9   ar
    28     9    10   ar
    29    10    11   ar
    30    11    12    1
    31    11    13   ar
    32    13    14   ar
    33    14    15    1
    34     6     1    1
    35    14     8   ar
    36    32    27    1
    37    20    16   ar
    38     3     7    1
@<TRIPOS>MOLECULE
*****
 35 38 0 0 0
SMALL
GASTEIGER

@<TRIPOS>ATOM
      1 C         141.4797  139.7425  164.0547 C.2     1  UNL1        0.1397
      2 C         141.7579  139.9831  162.6005 C.2     1  UNL1        0.1355
      3 N         141.4435  141.3154  161.9872 N.pl3   1  UNL1       -0.1998
      4 C         140.8509  142.4070  162.8280 C.2     1  UNL1        0.3442
      5 N         140.5727  142.1664  164.2822 N.2     1  UNL1       -0.0580
      6 C         140.8871  140.8341  164.8955 C.3     1  UNL1        0.2692
      7 H         141.6262  141.4733  161.0328 H       1  UNL1        0.2983
      8 C         140.6088  140.5935  166.3498 C.ar    1  UNL1        0.0371
      9 C         141.6424  140.9433  167.3790 C.ar    1  UNL1        0.0030
     10 C         141.3642  140.7027  168.8332 C.ar    1  UNL1        0.0295
     11 C         140.0523  140.1123  169.2582 C.ar    1  UNL1        0.1406
     12 F         139.7741  139.8717  170.7124 F       1  UNL1       -0.2042
     13 C         139.0188  139.7625  168.2289 C.ar    1  UNL1        0.0362
     14 C         139.2970  140.0031  166.7747 C.ar    1  UNL1        0.0372
     15 BR        138.2634  139.6533  165.7455 Br      1  UNL1       -0.0491
     16 C         140.5365  143.7393  162.2147 C.ar    1  UNL1        0.1931
     17 N         140.8364  144.1536  160.8046 N.ar    1  UNL1       -0.2297
     18 C         140.3523  145.5616  160.6222 C.ar    1  UNL1        0.1067
     19 C         139.7531  146.0175  161.9196 C.ar    1  UNL1        0.0577
     20 S         139.8670  144.8912  162.9038 S.2     1  UNL1       -0.0586
     21 C         141.7941  138.4102  164.6680 C.2     1  UNL1        0.3447
     22 O         140.7687  137.3156  164.6501 O.2     1  UNL1       -0.2450
     23 O         143.1339  138.1725  165.2992 O.3     1  UNL1       -0.4455
     24 C         145.1170  139.4735  164.2386 C.3     1  UNL1        0.0513
     25 C         144.1410  139.2823  165.3616 C.3     1  UNL1        0.2089
     26 C         142.3506  138.8914  161.7596 C.3     1  UNL1        0.1405
     27 N         141.7702  138.5846  160.4109 N.3     1  UNL1       -0.2614
     28 C         140.2990  138.7528  160.1717 C.3     1  UNL1        0.1050
     29 C         139.7186  138.4460  158.8229 C.3     1  UNL1        0.1599
     30 O         140.6093  137.9711  157.7135 O.3     1  UNL1       -0.3478
     31 C         142.0806  137.8029  157.9528 C.3     1  UNL1        0.1671
     32 C         142.6610  138.1096  159.3014 C.3     1  UNL1        0.1082
     33 C         142.9713  137.3279  156.8433 C.2     1  UNL1        0.0787
     34 O         144.0375  138.2315  156.2985 O.co2   1  UNL1       -0.5467
     35 O         142.7961  135.9493  156.2788 O.co2   1  UNL1       -0.5467
@<TRIPOS>UNITY_ATOM_ATTR
34 1
charge -1
@<TRIPOS>BOND
     1    24    25    1
     2    25    23    1
     3    23    21    1
     4    21    22    2
     5    21     1    1
     6     1     2    2
     7     2    26    1
     8    26    27    1
     9    27    28    1
    10    28    29    1
    11    29    30    1
    12    30    31    1
    13    31    33    1
    14    33    34   ar
    15    33    35   ar
    16    31    32    1
    17     2     3    1
    18     3     4    1
    19     4    16    1
    20    16    17   ar
    21    17    18   ar
    22    18    19   ar
    23    19    20   ar
    24     4     5    2
    25     5     6    1
    26     6     8    1
    27     8     9   ar
    28     9    10   ar
    29    10    11   ar
    30    11    12    1
    31    11    13   ar
    32    13    14   ar
    33    14    15    1
    34     6     1    1
    35    14     8   ar
    36    32    27    1
    37    20    16   ar
    38     3     7    1
@<TRIPOS>MOLECULE
*****
 35 38 0 0 0
SMALL
GASTEIGER

@<TRIPOS>ATOM
      1 C         141.4486  139.8826  164.2342 C.2     1  UNL1        0.1397
      2 C         141.6677  140.0817  162.7638 C.2     1  UNL1        0.1355
      3 N         141.3443  141.4019  162.1293 N.pl3   1  UNL1       -0.1998
      4 C         140.8018  142.5229  162.9653 C.2     1  UNL1        0.3442
      5 N         140.5827  142.3237  164.4358 N.2     1  UNL1       -0.0580
      6 C         140.9061  141.0036  165.0702 C.3     1  UNL1        0.2692
      7 H         141.4881  141.5326  161.1642 H       1  UNL1        0.2983
      8 C         140.6870  140.8044  166.5408 C.ar    1  UNL1        0.0371
      9 C         139.4353  140.1375  167.0290 C.ar    1  UNL1        0.0030
     10 C         139.2161  139.9384  168.4994 C.ar    1  UNL1        0.0295
     11 C         140.2488  140.4061  169.4818 C.ar    1  UNL1        0.1406
     12 F         140.0297  140.2070  170.9522 F       1  UNL1       -0.2042
     13 C         141.5006  141.0730  168.9936 C.ar    1  UNL1        0.0362
     14 C         141.7197  141.2722  167.5230 C.ar    1  UNL1        0.0372
     15 BR        142.9714  141.9391  167.0348 Br      1  UNL1       -0.0491
     16 C         140.4783  143.8431  162.3309 C.ar    1  UNL1        0.1931
     17 N         139.7855  144.9950  162.9965 N.ar    1  UNL1       -0.2297
     18 C         139.6699  146.1070  161.9965 C.ar    1  UNL1        0.1067
     19 C         140.2913  145.6424  160.7127 C.ar    1  UNL1        0.0577
     20 S         140.7909  144.2432  160.9195 S.2     1  UNL1       -0.0586
     21 C         141.7721  138.5624  164.8686 C.2     1  UNL1        0.3447
     22 O         143.0597  138.3855  165.6174 O.2     1  UNL1       -0.2450
     23 O         140.8079  137.4190  164.7543 O.3     1  UNL1       -0.4455
     24 C         138.8656  137.6334  163.0421 C.3     1  UNL1        0.0513
     25 C         139.3618  137.6843  164.4568 C.3     1  UNL1        0.2089
     26 C         142.2103  138.9607  161.9276 C.3     1  UNL1        0.1405
     27 N         142.1587  139.0483  160.4311 N.3     1  UNL1       -0.2614
     28 C         143.3992  139.3805  159.6560 C.3     1  UNL1        0.1050
     29 C         143.3475  139.4681  158.1594 C.3     1  UNL1        0.1599
     30 O         142.0554  139.2235  157.4380 O.3     1  UNL1       -0.3478
     31 C         140.8149  138.8913  158.2131 C.3     1  UNL1        0.1671
     32 C         140.8665  138.8037  159.7096 C.3     1  UNL1        0.1082
     33 C         139.5227  138.6468  157.4916 C.2     1  UNL1        0.0787
     34 O         139.3198  137.3718  156.7279 O.co2   1  UNL1       -0.5467
     35 O         138.4334  139.6772  157.5339 O.co2   1  UNL1       -0.5467
@<TRIPOS>UNITY_ATOM_ATTR
34 1
charge -1
@<TRIPOS>BOND
     1    24    25    1
     2    25    23    1
     3    23    21    1
     4    21    22    2
     5    21     1    1
     6     1     2    2
     7     2    26    1
     8    26    27    1
     9    27    28    1
    10    28    29    1
    11    29    30    1
    12    30    31    1
    13    31    33    1
    14    33    34   ar
    15    33    35   ar
    16    31    32    1
    17     2     3    1
    18     3     4    1
    19     4    16    1
    20    16    17   ar
    21    17    18   ar
    22    18    19   ar
    23    19    20   ar
    24     4     5    2
    25     5     6    1
    26     6     8    1
    27     8     9   ar
    28     9    10   ar
    29    10    11   ar
    30    11    12    1
    31    11    13   ar
    32    13    14   ar
    33    14    15    1
    34     6     1    1
    35    14     8   ar
    36    32    27    1
    37    20    16   ar
    38     3     7    1
@<TRIPOS>MOLECULE
*****
 35 38 0 0 0
SMALL
GASTEIGER

@<TRIPOS>ATOM
      1 C         142.0565  143.3205  160.5131 C.2     1  UNL1        0.1397
      2 C         142.9470  143.3111  159.3060 C.2     1  UNL1        0.1355
      3 N         142.5524  144.0750  158.0769 N.pl3   1  UNL1       -0.1998
      4 C         141.2674  144.8483  158.0548 C.2     1  UNL1        0.3442
      5 N         140.3769  144.8577  159.2619 N.2     1  UNL1       -0.0580
      6 C         140.7715  144.0938  160.4910 C.3     1  UNL1        0.2692
      7 H         143.1369  144.0688  157.2847 H       1  UNL1        0.2983
      8 C         139.8809  144.1033  161.6980 C.ar    1  UNL1        0.0371
      9 C         140.1755  145.0300  162.8401 C.ar    1  UNL1        0.0030
     10 C         139.2851  145.0395  164.0471 C.ar    1  UNL1        0.0295
     11 C         138.0999  144.1222  164.1121 C.ar    1  UNL1        0.1406
     12 F         137.2095  144.1317  165.3191 F       1  UNL1       -0.2042
     13 C         137.8053  143.1955  162.9700 C.ar    1  UNL1        0.0362
     14 C         138.6959  143.1860  161.7629 C.ar    1  UNL1        0.0372
     15 BR        138.4013  142.2593  160.6208 Br      1  UNL1       -0.0491
     16 C         140.8728  145.6123  156.8257 C.ar    1  UNL1        0.1931
     17 N         139.7949  146.6520  156.7420 N.ar    1  UNL1       -0.2297
     18 C         139.7427  147.1530  155.3291 C.ar    1  UNL1        0.1067
     19 C         140.7884  146.4227  154.5395 C.ar    1  UNL1        0.0577
     20 S         141.4868  145.4705  155.4645 S.2     1  UNL1       -0.0586
     21 C         142.4511  142.5565  161.7422 C.2     1  UNL1        0.3447
     22 O         141.6771  141.3376  162.1484 O.2     1  UNL1       -0.2450
     23 O         143.6197  143.0115  162.5651 O.3     1  UNL1       -0.4455
     24 C         143.6283  145.1058  164.1027 C.3     1  UNL1        0.0513
     25 C         143.8726  144.4768  162.7629 C.3     1  UNL1        0.2089
     26 C         144.2321  142.5377  159.3281 C.3     1  UNL1        0.1405
     27 N         144.7361  141.8848  158.0752 N.3     1  UNL1       -0.2614
     28 C         144.0134  140.7013  157.5033 C.3     1  UNL1        0.1050
     29 C         144.5175  140.0484  156.2504 C.3     1  UNL1        0.1599
     30 O         145.7442  140.5790  155.5695 O.3     1  UNL1       -0.3478
     31 C         146.4669  141.7624  156.1415 C.3     1  UNL1        0.1671
     32 C         145.9629  142.4153  157.3943 C.3     1  UNL1        0.1082
     33 C         147.6937  142.2930  155.4606 C.2     1  UNL1        0.0787
     34 O         149.0289  141.6613  155.7218 O.co2   1  UNL1       -0.5467
     35 O         147.5852  143.4552  154.5185 O.co2   1  UNL1       -0.5467
@<TRIPOS>UNITY_ATOM_ATTR
34 1
charge -1
@<TRIPOS>BOND
     1    24    25    1
     2    25    23    1
     3    23    21    1
     4    21    22    2
     5    21     1    1
     6     1     2    2
     7     2    26    1
     8    26    27    1
     9    27    28    1
    10    28    29    1
    11    29    30    1
    12    30    31    1
    13    31    33    1
    14    33    34   ar
    15    33    35   ar
    16    31    32    1
    17     2     3    1
    18     3     4    1
    19     4    16    1
    20    16    17   ar
    21    17    18   ar
    22    18    19   ar
    23    19    20   ar
    24     4     5    2
    25     5     6    1
    26     6     8    1
    27     8     9   ar
    28     9    10   ar
    29    10    11   ar
    30    11    12    1
    31    11    13   ar
    32    13    14   ar
    33    14    15    1
    34     6     1    1
    35    14     8   ar
    36    32    27    1
    37    20    16   ar
    38     3     7    1
@<TRIPOS>MOLECULE
*****
 35 38 0 0 0
SMALL
GASTEIGER

@<TRIPOS>ATOM
      1 C         142.3999  140.2384  161.0261 C.2     1  UNL1        0.1397
      2 C         143.1535  140.7606  159.8390 C.2     1  UNL1        0.1355
      3 N         143.3178  139.9037  158.6188 N.pl3   1  UNL1       -0.1998
      4 C         142.7286  138.5247  158.5858 C.2     1  UNL1        0.3442
      5 N         141.9750  138.0026  159.7730 N.2     1  UNL1       -0.0580
      6 C         141.8107  138.8594  160.9932 C.3     1  UNL1        0.2692
      7 H         143.8124  140.2465  157.8396 H       1  UNL1        0.2983
      8 C         141.0571  138.3372  162.1804 C.ar    1  UNL1        0.0371
      9 C         141.7998  137.7162  163.3262 C.ar    1  UNL1        0.0030
     10 C         141.0463  137.1940  164.5134 C.ar    1  UNL1        0.0295
     11 C         139.5501  137.2927  164.5548 C.ar    1  UNL1        0.1406
     12 F         138.7966  136.7705  165.7420 F       1  UNL1       -0.2042
     13 C         138.8074  137.9136  163.4090 C.ar    1  UNL1        0.0362
     14 C         139.5610  138.4359  162.2218 C.ar    1  UNL1        0.0372
     15 BR        138.8184  139.0568  161.0760 Br      1  UNL1       -0.0491
     16 C         142.8929  137.6679  157.3656 C.ar    1  UNL1        0.1931
     17 N         142.8378  136.1694  157.3266 N.ar    1  UNL1       -0.2297
     18 C         143.0520  135.7345  155.9071 C.ar    1  UNL1        0.1067
     19 C         143.2395  136.9642  155.0688 C.ar    1  UNL1        0.0577
     20 S         143.1411  138.1591  155.9702 S.2     1  UNL1       -0.0586
     21 C         142.2356  141.0952  162.2463 C.2     1  UNL1        0.3447
     22 O         140.9032  141.7101  162.5571 O.2     1  UNL1       -0.2450
     23 O         143.4037  141.3372  163.1557 O.3     1  UNL1       -0.4455
     24 C         144.8582  139.5519  164.3588 C.3     1  UNL1        0.0513
     25 C         144.5675  140.3909  163.1497 C.3     1  UNL1        0.2089
     26 C         143.7427  142.1396  159.8719 C.3     1  UNL1        0.1405
     27 N         142.8912  143.3274  159.5342 N.3     1  UNL1       -0.2614
     28 C         142.9049  143.8890  158.1434 C.3     1  UNL1        0.1050
     29 C         142.0532  145.0767  157.8057 C.3     1  UNL1        0.1599
     30 O         141.1879  145.7029  158.8589 O.3     1  UNL1       -0.3478
     31 C         141.1742  145.1413  160.2497 C.3     1  UNL1        0.1671
     32 C         142.0258  143.9536  160.5874 C.3     1  UNL1        0.1082
     33 C         140.3089  145.7674  161.3029 C.2     1  UNL1        0.0787
     34 O         140.4751  145.3749  162.7410 O.co2   1  UNL1       -0.5467
     35 O         139.2773  146.7861  160.9179 O.co2   1  UNL1       -0.5467
@<TRIPOS>UNITY_ATOM_ATTR
34 1
charge -1
@<TRIPOS>BOND
     1    24    25    1
     2    25    23    1
     3    23    21    1
     4    21    22    2
     5    21     1    1
     6     1     2    2
     7     2    26    1
     8    26    27    1
     9    27    28    1
    10    28    29    1
    11    29    30    1
    12    30    31    1
    13    31    33    1
    14    33    34   ar
    15    33    35   ar
    16    31    32    1
    17     2     3    1
    18     3     4    1
    19     4    16    1
    20    16    17   ar
    21    17    18   ar
    22    18    19   ar
    23    19    20   ar
    24     4     5    2
    25     5     6    1
    26     6     8    1
    27     8     9   ar
    28     9    10   ar
    29    10    11   ar
    30    11    12    1
    31    11    13   ar
    32    13    14   ar
    33    14    15    1
    34     6     1    1
    35    14     8   ar
    36    32    27    1
    37    20    16   ar
    38     3     7    1
@<TRIPOS>MOLECULE
*****
 35 38 0 0 0
SMALL
GASTEIGER

@<TRIPOS>ATOM
      1 C         139.6273  141.1457  161.2279 C.2     1  UNL1        0.1397
      2 C         139.7861  140.4065  159.9324 C.2     1  UNL1        0.1355
      3 N         139.4315  141.0767  158.6382 N.pl3   1  UNL1       -0.1998
      4 C         138.9183  142.4861  158.6394 C.2     1  UNL1        0.3442
      5 N         138.7596  143.2253  159.9349 N.2     1  UNL1       -0.0580
      6 C         139.1141  142.5551  161.2291 C.3     1  UNL1        0.2692
      7 H         139.5357  140.5915  157.7879 H       1  UNL1        0.2983
      8 C         138.9553  143.2944  162.5247 C.ar    1  UNL1        0.0371
      9 C         137.6753  143.1845  163.2989 C.ar    1  UNL1        0.0030
     10 C         137.5165  143.9237  164.5944 C.ar    1  UNL1        0.0295
     11 C         138.6378  144.7729  165.1157 C.ar    1  UNL1        0.1406
     12 F         138.4790  145.5122  166.4111 F       1  UNL1       -0.2042
     13 C         139.9178  144.8829  164.3414 C.ar    1  UNL1        0.0362
     14 C         140.0766  144.1436  163.0459 C.ar    1  UNL1        0.0372
     15 BR        141.3566  144.2535  162.2717 Br      1  UNL1       -0.0491
     16 C         138.5638  143.1563  157.3451 C.ar    1  UNL1        0.1931
     17 N         139.3185  144.2797  156.6983 N.ar    1  UNL1       -0.2297
     18 C         138.6134  144.6385  155.4238 C.ar    1  UNL1        0.1067
     19 C         137.4230  143.7369  155.2830 C.ar    1  UNL1        0.0577
     20 S         137.3923  142.8209  156.4704 S.2     1  UNL1       -0.0586
     21 C         139.9819  140.4755  162.5222 C.2     1  UNL1        0.3447
     22 O         141.3765  140.5812  163.0641 O.2     1  UNL1       -0.2450
     23 O         138.9418  139.6996  163.2745 O.3     1  UNL1       -0.4455
     24 C         139.6073  137.6828  164.7711 C.3     1  UNL1        0.0513
     25 C         139.2599  139.1349  164.6273 C.3     1  UNL1        0.2089
     26 C         140.2994  138.9970  159.9312 C.3     1  UNL1        0.1405
     27 N         140.8368  138.3957  158.6665 N.3     1  UNL1       -0.2614
     28 C         142.3177  138.2586  158.4714 C.3     1  UNL1        0.1050
     29 C         142.8552  137.6572  157.2067 C.3     1  UNL1        0.1599
     30 O         141.9117  137.1930  156.1370 O.3     1  UNL1       -0.3478
     31 C         140.4307  137.3300  156.3320 C.3     1  UNL1        0.1671
     32 C         139.8933  137.9314  157.5967 C.3     1  UNL1        0.1082
     33 C         139.4873  136.8658  155.2623 C.2     1  UNL1        0.0787
     34 O         138.0170  137.1334  155.3913 O.co2   1  UNL1       -0.5467
     35 O         140.0140  136.1339  154.0636 O.co2   1  UNL1       -0.5467
@<TRIPOS>UNITY_ATOM_ATTR
34 1
charge -1
@<TRIPOS>BOND
     1    24    25    1
     2    25    23    1
     3    23    21    1
     4    21    22    2
     5    21     1    1
     6     1     2    2
     7     2    26    1
     8    26    27    1
     9    27    28    1
    10    28    29    1
    11    29    30    1
    12    30    31    1
    13    31    33    1
    14    33    34   ar
    15    33    35   ar
    16    31    32    1
    17     2     3    1
    18     3     4    1
    19     4    16    1
    20    16    17   ar
    21    17    18   ar
    22    18    19   ar
    23    19    20   ar
    24     4     5    2
    25     5     6    1
    26     6     8    1
    27     8     9   ar
    28     9    10   ar
    29    10    11   ar
    30    11    12    1
    31    11    13   ar
    32    13    14   ar
    33    14    15    1
    34     6     1    1
    35    14     8   ar
    36    32    27    1
    37    20    16   ar
    38     3     7    1
@<TRIPOS>MOLECULE
*****
 35 38 0 0 0
SMALL
GASTEIGER

@<TRIPOS>ATOM
      1 C         140.7131  140.2523  164.4974 C.2     1  UNL1        0.1397
      2 C         140.3955  140.1715  163.0337 C.2     1  UNL1        0.1355
      3 N         140.2248  141.4283  162.2328 N.pl3   1  UNL1       -0.1998
      4 C         140.3718  142.7658  162.8957 C.2     1  UNL1        0.3442
      5 N         140.6894  142.8466  164.3594 N.2     1  UNL1       -0.0580
      6 C         140.8601  141.5898  165.1603 C.3     1  UNL1        0.2692
      7 H         140.0164  141.3753  161.2721 H       1  UNL1        0.2983
      8 C         141.1777  141.6706  166.6241 C.ar    1  UNL1        0.0371
      9 C         140.1257  141.3353  167.6394 C.ar    1  UNL1        0.0030
     10 C         140.4433  141.4160  169.1031 C.ar    1  UNL1        0.0295
     11 C         141.8129  141.8321  169.5516 C.ar    1  UNL1        0.1406
     12 F         142.1305  141.9129  171.0153 F       1  UNL1       -0.2042
     13 C         142.8649  142.1674  168.5363 C.ar    1  UNL1        0.0362
     14 C         142.5473  142.0866  167.0725 C.ar    1  UNL1        0.0372
     15 BR        143.5993  142.4219  166.0572 Br      1  UNL1       -0.0491
     16 C         140.2012  144.0226  162.0948 C.ar    1  UNL1        0.1931
     17 N         139.6396  145.3193  162.5979 N.ar    1  UNL1       -0.2297
     18 C         139.6535  146.3015  161.4643 C.ar    1  UNL1        0.1067
     19 C         140.2237  145.6118  160.2604 C.ar    1  UNL1        0.0577
     20 S         140.5622  144.2034  160.6501 S.2     1  UNL1       -0.0586
     21 C         140.8837  138.9955  165.2983 C.2     1  UNL1        0.3447
     22 O         142.2453  138.5941  165.7831 O.2     1  UNL1       -0.2450
     23 O         139.6928  138.1401  165.6143 O.3     1  UNL1       -0.4455
     24 C         137.6350  138.5796  167.1383 C.3     1  UNL1        0.0513
     25 C         138.3513  138.7740  165.8347 C.3     1  UNL1        0.2089
     26 C         140.2485  138.8340  162.3707 C.3     1  UNL1        0.1405
     27 N         140.8160  138.6096  161.0005 N.3     1  UNL1       -0.2614
     28 C         142.2525  138.2085  160.8402 C.3     1  UNL1        0.1050
     29 C         142.8200  137.9842  159.4699 C.3     1  UNL1        0.1599
     30 O         141.9511  138.1609  158.2601 O.3     1  UNL1       -0.3478
     31 C         140.5147  138.5619  158.4204 C.3     1  UNL1        0.1671
     32 C         139.9471  138.7863  159.7906 C.3     1  UNL1        0.1082
     33 C         139.6458  138.7387  157.2106 C.2     1  UNL1        0.0787
     34 O         138.4158  139.5936  157.2890 O.co2   1  UNL1       -0.5467
     35 O         140.0069  138.0604  155.9223 O.co2   1  UNL1       -0.5467
@<TRIPOS>UNITY_ATOM_ATTR
34 1
charge -1
@<TRIPOS>BOND
     1    24    25    1
     2    25    23    1
     3    23    21    1
     4    21    22    2
     5    21     1    1
     6     1     2    2
     7     2    26    1
     8    26    27    1
     9    27    28    1
    10    28    29    1
    11    29    30    1
    12    30    31    1
    13    31    33    1
    14    33    34   ar
    15    33    35   ar
    16    31    32    1
    17     2     3    1
    18     3     4    1
    19     4    16    1
    20    16    17   ar
    21    17    18   ar
    22    18    19   ar
    23    19    20   ar
    24     4     5    2
    25     5     6    1
    26     6     8    1
    27     8     9   ar
    28     9    10   ar
    29    10    11   ar
    30    11    12    1
    31    11    13   ar
    32    13    14   ar
    33    14    15    1
    34     6     1    1
    35    14     8   ar
    36    32    27    1
    37    20    16   ar
    38     3     7    1
@<TRIPOS>MOLECULE
*****
 35 38 0 0 0
SMALL
GASTEIGER

@<TRIPOS>ATOM
      1 C         139.8284  142.3197  163.4857 C.2     1  UNL1        0.1397
      2 C         139.7638  142.2907  161.9874 C.2     1  UNL1        0.1355
      3 N         140.4983  141.2276  161.2255 N.pl3   1  UNL1       -0.1998
      4 C         141.2973  140.1936  161.9618 C.2     1  UNL1        0.3442
      5 N         141.3619  140.2227  163.4601 N.2     1  UNL1       -0.0580
      6 C         140.6275  141.2857  164.2220 C.3     1  UNL1        0.2692
      7 H         140.4558  141.2086  160.2421 H       1  UNL1        0.2983
      8 C         140.6921  141.3147  165.7204 C.ar    1  UNL1        0.0371
      9 C         141.7567  142.1156  166.4098 C.ar    1  UNL1        0.0030
     10 C         141.8214  142.1446  167.9081 C.ar    1  UNL1        0.0295
     11 C         140.8215  141.3728  168.7171 C.ar    1  UNL1        0.1406
     12 F         140.8862  141.4018  170.2154 F       1  UNL1       -0.2042
     13 C         139.7569  140.5719  168.0277 C.ar    1  UNL1        0.0362
     14 C         139.6922  140.5429  166.5293 C.ar    1  UNL1        0.0372
     15 BR        138.6277  139.7420  165.8400 Br      1  UNL1       -0.0491
     16 C         142.0317  139.1306  161.1999 C.ar    1  UNL1        0.1931
     17 N         141.8771  138.8265  159.7392 N.ar    1  UNL1       -0.2297
     18 C         142.7995  137.6930  159.4014 C.ar    1  UNL1        0.1067
     19 C         143.5244  137.2964  160.6534 C.ar    1  UNL1        0.0577
     20 S         143.0498  138.1849  161.7649 S.2     1  UNL1       -0.0586
     21 C         139.0940  143.3828  164.2476 C.2     1  UNL1        0.3447
     22 O         137.6521  143.1848  164.6105 O.2     1  UNL1       -0.2450
     23 O         139.8015  144.6438  164.6467 O.3     1  UNL1       -0.4455
     24 C         142.2741  144.9780  163.9224 C.3     1  UNL1        0.0513
     25 C         140.8137  145.2592  163.7265 C.3     1  UNL1        0.2089
     26 C         138.9647  143.3247  161.2509 C.3     1  UNL1        0.1405
     27 N         139.1571  143.5102  159.7750 N.3     1  UNL1       -0.2614
     28 C         138.3974  142.6535  158.8060 C.3     1  UNL1        0.1050
     29 C         138.5898  142.8390  157.3300 C.3     1  UNL1        0.1599
     30 O         139.5420  143.8812  156.8229 O.3     1  UNL1       -0.3478
     31 C         140.3018  144.7380  157.7919 C.3     1  UNL1        0.1671
     32 C         140.1094  144.5525  159.2678 C.3     1  UNL1        0.1082
     33 C         141.2539  145.7802  157.2848 C.2     1  UNL1        0.0787
     34 O         141.0056  146.4431  155.9624 O.co2   1  UNL1       -0.5467
     35 O         142.4545  146.1594  158.1002 O.co2   1  UNL1       -0.5467
@<TRIPOS>UNITY_ATOM_ATTR
34 1
charge -1
@<TRIPOS>BOND
     1    24    25    1
     2    25    23    1
     3    23    21    1
     4    21    22    2
     5    21     1    1
     6     1     2    2
     7     2    26    1
     8    26    27    1
     9    27    28    1
    10    28    29    1
    11    29    30    1
    12    30    31    1
    13    31    33    1
    14    33    34   ar
    15    33    35   ar
    16    31    32    1
    17     2     3    1
    18     3     4    1
    19     4    16    1
    20    16    17   ar
    21    17    18   ar
    22    18    19   ar
    23    19    20   ar
    24     4     5    2
    25     5     6    1
    26     6     8    1
    27     8     9   ar
    28     9    10   ar
    29    10    11   ar
    30    11    12    1
    31    11    13   ar
    32    13    14   ar
    33    14    15    1
    34     6     1    1
    35    14     8   ar
    36    32    27    1
    37    20    16   ar
    38     3     7    1
@<TRIPOS>MOLECULE
*****
 35 38 0 0 0
SMALL
GASTEIGER

@<TRIPOS>ATOM
      1 C         140.3613  139.3908  160.3514 C.2     1  UNL1        0.1397
      2 C         139.9963  139.5163  158.9020 C.2     1  UNL1        0.1355
      3 N         140.8261  138.8304  157.8575 N.pl3   1  UNL1       -0.1998
      4 C         142.0208  138.0189  158.2624 C.2     1  UNL1        0.3442
      5 N         142.3858  137.8934  159.7119 N.2     1  UNL1       -0.0580
      6 C         141.5560  138.5793  160.7564 C.3     1  UNL1        0.2692
      7 H         140.5865  138.9128  156.9061 H       1  UNL1        0.2983
      8 C         141.9211  138.4537  162.2059 C.ar    1  UNL1        0.0371
      9 C         141.2153  137.4538  163.0731 C.ar    1  UNL1        0.0030
     10 C         141.5803  137.3282  164.5226 C.ar    1  UNL1        0.0295
     11 C         142.6511  138.2025  165.1049 C.ar    1  UNL1        0.1406
     12 F         143.0160  138.0769  166.5544 F       1  UNL1       -0.2042
     13 C         143.3568  139.2025  164.2377 C.ar    1  UNL1        0.0362
     14 C         142.9918  139.3281  162.7882 C.ar    1  UNL1        0.0372
     15 BR        143.6975  140.3280  161.9210 Br      1  UNL1       -0.0491
     16 C         142.8506  137.3330  157.2179 C.ar    1  UNL1        0.1931
     17 N         143.7939  138.0014  156.2622 N.ar    1  UNL1       -0.2297
     18 C         144.4091  136.9398  155.3993 C.ar    1  UNL1        0.1067
     19 C         143.8461  135.6152  155.8218 C.ar    1  UNL1        0.0577
     20 S         142.8829  135.8583  156.9458 S.2     1  UNL1       -0.0586
     21 C         139.5315  140.0767  161.3959 C.2     1  UNL1        0.3447
     22 O         138.2544  139.4491  161.8705 O.2     1  UNL1       -0.2450
     23 O         139.9787  141.3901  161.9658 O.3     1  UNL1       -0.4455
     24 C         140.0064  140.8129  164.4989 C.3     1  UNL1        0.0513
     25 C         139.6410  141.7466  163.3831 C.3     1  UNL1        0.2089
     26 C         138.8015  140.3278  158.4969 C.3     1  UNL1        0.1405
     27 N         138.9849  141.7162  157.9598 N.3     1  UNL1       -0.2614
     28 C         138.4949  142.0590  156.5842 C.3     1  UNL1        0.1050
     29 C         138.6784  143.4475  156.0470 C.3     1  UNL1        0.1599
     30 O         139.3519  144.4931  156.8855 O.3     1  UNL1       -0.3478
     31 C         139.8419  144.1503  158.2611 C.3     1  UNL1        0.1671
     32 C         139.6585  142.7619  158.7983 C.3     1  UNL1        0.1082
     33 C         140.5154  145.1959  159.0996 C.2     1  UNL1        0.0787
     34 O         141.9281  145.6018  158.8004 O.co2   1  UNL1       -0.5467
     35 O         139.7762  145.8356  160.2374 O.co2   1  UNL1       -0.5467
@<TRIPOS>UNITY_ATOM_ATTR
34 1
charge -1
@<TRIPOS>BOND
     1    24    25    1
     2    25    23    1
     3    23    21    1
     4    21    22    2
     5    21     1    1
     6     1     2    2
     7     2    26    1
     8    26    27    1
     9    27    28    1
    10    28    29    1
    11    29    30    1
    12    30    31    1
    13    31    33    1
    14    33    34   ar
    15    33    35   ar
    16    31    32    1
    17     2     3    1
    18     3     4    1
    19     4    16    1
    20    16    17   ar
    21    17    18   ar
    22    18    19   ar
    23    19    20   ar
    24     4     5    2
    25     5     6    1
    26     6     8    1
    27     8     9   ar
    28     9    10   ar
    29    10    11   ar
    30    11    12    1
    31    11    13   ar
    32    13    14   ar
    33    14    15    1
    34     6     1    1
    35    14     8   ar
    36    32    27    1
    37    20    16   ar
    38     3     7    1
