@<TRIPOS>MOLECULE
*****
 33 37 0 0 0
SMALL
GASTEIGER

@<TRIPOS>ATOM
      1 C         143.5328  142.1337  162.2018 C.ar    1  UNL1        0.1074
      2 C         145.0104  141.9689  162.4003 C.ar    1  UNL1        0.0588
      3 S         145.2247  141.2091  163.6758 S.2     1  UNL1       -0.0508
      4 C         143.8796  140.9043  164.2654 C.ar    1  UNL1        0.1646
      5 N         142.8339  141.4758  163.3544 N.ar    1  UNL1       -0.2224
      6 C         141.0894  144.5001  160.1571 C.ar    1  UNL1        0.2416
      7 N         141.7518  143.8002  161.3067 N.ar    1  UNL1       -0.2089
      8 C         142.8703  142.8336  161.0523 C.ar    1  UNL1        0.1026
      9 C         143.3264  142.5669  159.6484 C.ar    1  UNL1        0.0224
     10 C         142.6639  143.2669  158.4989 C.ar    1  UNL1        0.0239
     11 C         141.5454  144.2334  158.7533 C.ar    1  UNL1        0.1189
     12 N         140.8830  144.9333  157.6038 N.ar    1  UNL1       -0.2826
     13 C         141.4532  146.0801  156.8228 C.ar    1  UNL1        0.1826
     14 N         140.4567  146.4648  155.7699 N.ar    1  UNL1       -0.2280
     15 C         139.2705  145.5559  155.9000 C.ar    1  UNL1        0.0786
     16 C         138.0374  145.5879  155.0465 C.3     1  UNL1        0.0538
     17 C         139.5340  144.6094  157.0335 C.ar    1  UNL1        0.0963
     18 C         139.8250  146.1067  161.7603 C.3     1  UNL1        0.2543
     19 O         139.9709  145.4666  160.4116 O.3     1  UNL1       -0.4551
     20 N         143.6248  140.1589  165.5420 N.pl3   1  UNL1       -0.2786
     21 H         144.3284  139.5886  165.9279 H       1  UNL1        0.1555
     22 C         142.2980  140.2826  166.2307 C.ar    1  UNL1        0.1276
     23 C         141.0772  139.4584  165.9469 C.ar    1  UNL1        0.0244
     24 C         139.9837  139.9185  166.8648 C.ar    1  UNL1        0.0773
     25 N         140.5287  141.0270  167.7159 N.ar    1  UNL1       -0.1728
     26 N         141.9590  141.2520  167.3240 N.ar    1  UNL1       -0.2354
     27 C         138.6330  139.2687  166.8071 C.3     1  UNL1        0.0474
     28 C         138.3759  138.1588  165.8315 C.3     1  UNL1        0.0067
     29 C         139.4693  137.6987  164.9136 C.3     1  UNL1        0.0052
     30 C         140.8200  138.3485  164.9713 C.3     1  UNL1        0.0305
     31 C         142.8873  142.2680  167.9206 C.3     1  UNL1        0.1668
     32 C         143.2984  142.1551  169.3587 C.3     1  UNL1        0.2195
     33 F         144.6866  142.5425  169.7746 F       1  UNL1       -0.2321
@<TRIPOS>BOND
     1    18    19    1
     2    19     6    1
     3     6     7   ar
     4     7     8   ar
     5     8     1    1
     6     1     2   ar
     7     2     3   ar
     8     3     4   ar
     9     4    20    1
    10    20    22    1
    11    22    23   ar
    12    23    24   ar
    13    24    25   ar
    14    25    26   ar
    15    26    31    1
    16    31    32    1
    17    32    33    1
    18    24    27    1
    19    27    28    1
    20    28    29    1
    21    29    30    1
    22     4     5   ar
    23     8     9   ar
    24     9    10   ar
    25    10    11   ar
    26    11    12    1
    27    12    13   ar
    28    13    14   ar
    29    14    15   ar
    30    15    16    1
    31    15    17   ar
    32    11     6   ar
    33    17    12   ar
    34     5     1   ar
    35    26    22   ar
    36    30    23    1
    37    20    21    1
@<TRIPOS>MOLECULE
*****
 33 37 0 0 0
SMALL
GASTEIGER

@<TRIPOS>ATOM
      1 C         142.6861  143.3832  163.1087 C.ar    1  UNL1        0.1074
      2 C         143.9081  143.9968  163.7255 C.ar    1  UNL1        0.0588
      3 S         144.1701  143.2994  165.0274 S.2     1  UNL1       -0.0508
      4 C         143.1101  142.2548  165.2152 C.ar    1  UNL1        0.1646
      5 N         142.1930  142.3067  164.0294 N.ar    1  UNL1       -0.2224
      6 C         142.2111  143.9891  159.2155 C.ar    1  UNL1        0.2416
      7 N         142.8311  143.5952  160.5233 N.ar    1  UNL1       -0.2089
      8 C         142.0662  143.7772  161.8009 C.ar    1  UNL1        0.1026
      9 C         140.6815  144.3530  161.7705 C.ar    1  UNL1        0.0224
     10 C         140.0616  144.7469  160.4625 C.ar    1  UNL1        0.0239
     11 C         140.8264  144.5650  159.1851 C.ar    1  UNL1        0.1189
     12 N         140.2065  144.9589  157.8772 N.ar    1  UNL1       -0.2826
     13 C         139.5103  144.0386  156.9188 C.ar    1  UNL1        0.1826
     14 N         139.0475  144.8531  155.7474 N.ar    1  UNL1       -0.2280
     15 C         139.4576  146.2769  155.9817 C.ar    1  UNL1        0.0786
     16 C         139.1972  147.4323  155.0614 C.3     1  UNL1        0.0538
     17 C         140.1740  146.3422  157.2981 C.ar    1  UNL1        0.0963
     18 C         144.1346  142.8559  157.8865 C.3     1  UNL1        0.2543
     19 O         142.9759  143.8072  157.9380 O.3     1  UNL1       -0.4551
     20 N         142.9885  141.3221  166.3838 N.pl3   1  UNL1       -0.2786
     21 H         143.7978  140.9997  166.8425 H       1  UNL1        0.1555
     22 C         141.6340  140.8807  166.8533 C.ar    1  UNL1        0.1276
     23 C         140.7979  139.7973  166.2391 C.ar    1  UNL1        0.0244
     24 C         139.5249  139.6921  167.0256 C.ar    1  UNL1        0.0773
     25 N         139.5744  140.7104  168.1259 N.ar    1  UNL1       -0.1728
     26 N         140.8779  141.4450  168.0194 N.ar    1  UNL1       -0.2354
     27 C         138.4853  138.6827  166.6383 C.3     1  UNL1        0.0474
     28 C         138.7185  137.7785  165.4645 C.3     1  UNL1        0.0067
     29 C         139.9914  137.8837  164.6779 C.3     1  UNL1        0.0052
     30 C         141.0311  138.8931  165.0652 C.3     1  UNL1        0.0305
     31 C         141.3435  142.5499  168.9207 C.3     1  UNL1        0.1668
     32 C         140.3467  143.4886  169.5331 C.3     1  UNL1        0.2195
     33 F         140.8043  144.7929  170.1157 F       1  UNL1       -0.2321
@<TRIPOS>BOND
     1    18    19    1
     2    19     6    1
     3     6     7   ar
     4     7     8   ar
     5     8     1    1
     6     1     2   ar
     7     2     3   ar
     8     3     4   ar
     9     4    20    1
    10    20    22    1
    11    22    23   ar
    12    23    24   ar
    13    24    25   ar
    14    25    26   ar
    15    26    31    1
    16    31    32    1
    17    32    33    1
    18    24    27    1
    19    27    28    1
    20    28    29    1
    21    29    30    1
    22     4     5   ar
    23     8     9   ar
    24     9    10   ar
    25    10    11   ar
    26    11    12    1
    27    12    13   ar
    28    13    14   ar
    29    14    15   ar
    30    15    16    1
    31    15    17   ar
    32    11     6   ar
    33    17    12   ar
    34     5     1   ar
    35    26    22   ar
    36    30    23    1
    37    20    21    1
@<TRIPOS>MOLECULE
*****
 33 37 0 0 0
SMALL
GASTEIGER

@<TRIPOS>ATOM
      1 C         142.5407  137.7474  159.4154 C.ar    1  UNL1        0.1074
      2 C         141.7353  138.5010  158.3989 C.ar    1  UNL1        0.0588
      3 S         141.9981  137.8904  157.0542 S.2     1  UNL1       -0.0508
      4 C         142.9659  136.7596  157.2397 C.ar    1  UNL1        0.1646
      5 N         143.3013  136.6712  158.6991 N.ar    1  UNL1       -0.2224
      6 C         141.5197  137.7864  163.2503 C.ar    1  UNL1        0.2416
      7 N         141.4815  137.5118  161.7761 N.ar    1  UNL1       -0.2089
      8 C         142.5788  138.0220  160.8896 C.ar    1  UNL1        0.1026
      9 C         143.7141  138.8066  161.4773 C.ar    1  UNL1        0.0224
     10 C         143.7522  139.0811  162.9515 C.ar    1  UNL1        0.0239
     11 C         142.6549  138.5710  163.8380 C.ar    1  UNL1        0.1189
     12 N         142.6930  138.8455  165.3121 N.ar    1  UNL1       -0.2826
     13 C         143.5897  138.1756  166.3109 C.ar    1  UNL1        0.1826
     14 N         143.2920  138.7542  167.6624 N.ar    1  UNL1       -0.2280
     15 C         142.2113  139.7817  167.4990 C.ar    1  UNL1        0.0786
     16 C         141.6070  140.6076  168.5956 C.3     1  UNL1        0.0538
     17 C         141.8412  139.8380  166.0464 C.ar    1  UNL1        0.0963
     18 C         139.0107  137.7363  163.9232 C.3     1  UNL1        0.2543
     19 O         140.4224  137.2763  164.1368 O.3     1  UNL1       -0.4551
     20 N         143.5040  135.8727  156.1561 N.pl3   1  UNL1       -0.2786
     21 H         144.2255  136.1952  155.5690 H       1  UNL1        0.1555
     22 C         142.9429  134.4945  155.9672 C.ar    1  UNL1        0.1276
     23 C         143.4689  133.2354  156.5899 C.ar    1  UNL1        0.0244
     24 C         142.6083  132.0962  156.1300 C.ar    1  UNL1        0.0773
     25 N         141.5504  132.6513  155.2230 N.ar    1  UNL1       -0.1728
     26 N         141.7571  134.1336  155.1223 N.ar    1  UNL1       -0.2354
     27 C         142.8992  130.7006  156.5964 C.3     1  UNL1        0.0474
     28 C         144.0506  130.4442  157.5229 C.3     1  UNL1        0.0067
     29 C         144.9112  131.5834  157.9828 C.3     1  UNL1        0.0052
     30 C         144.6204  132.9790  157.5164 C.3     1  UNL1        0.0305
     31 C         140.9244  135.0874  154.3181 C.3     1  UNL1        0.1668
     32 C         141.4936  135.7242  153.0851 C.3     1  UNL1        0.2195
     33 F         142.3641  136.9401  153.2026 F       1  UNL1       -0.2321
@<TRIPOS>BOND
     1    18    19    1
     2    19     6    1
     3     6     7   ar
     4     7     8   ar
     5     8     1    1
     6     1     2   ar
     7     2     3   ar
     8     3     4   ar
     9     4    20    1
    10    20    22    1
    11    22    23   ar
    12    23    24   ar
    13    24    25   ar
    14    25    26   ar
    15    26    31    1
    16    31    32    1
    17    32    33    1
    18    24    27    1
    19    27    28    1
    20    28    29    1
    21    29    30    1
    22     4     5   ar
    23     8     9   ar
    24     9    10   ar
    25    10    11   ar
    26    11    12    1
    27    12    13   ar
    28    13    14   ar
    29    14    15   ar
    30    15    16    1
    31    15    17   ar
    32    11     6   ar
    33    17    12   ar
    34     5     1   ar
    35    26    22   ar
    36    30    23    1
    37    20    21    1
@<TRIPOS>MOLECULE
*****
 33 37 0 0 0
SMALL
GASTEIGER

@<TRIPOS>ATOM
      1 C         141.1663  138.3148  159.8067 C.ar    1  UNL1        0.1074
      2 C         140.4574  138.8227  158.5863 C.ar    1  UNL1        0.0588
      3 S         141.2553  138.4148  157.3834 S.2     1  UNL1       -0.0508
      4 C         142.4573  137.6549  157.8604 C.ar    1  UNL1        0.1646
      5 N         142.4024  137.5931  159.3581 N.ar    1  UNL1       -0.2224
      6 C         139.0060  139.4305  162.9433 C.ar    1  UNL1        0.2416
      7 N         139.4543  139.2486  161.5235 N.ar    1  UNL1       -0.2089
      8 C         140.7180  138.4968  161.2265 C.ar    1  UNL1        0.1026
      9 C         141.5331  137.9269  162.3493 C.ar    1  UNL1        0.0224
     10 C         141.0847  138.1089  163.7692 C.ar    1  UNL1        0.0239
     11 C         139.8211  138.8607  164.0661 C.ar    1  UNL1        0.1189
     12 N         139.3728  139.0427  165.4859 N.ar    1  UNL1       -0.2826
     13 C         138.1879  138.3836  166.1277 C.ar    1  UNL1        0.1826
     14 N         138.1133  138.8492  167.5516 N.ar    1  UNL1       -0.2280
     15 C         139.2521  139.7961  167.7899 C.ar    1  UNL1        0.0786
     16 C         139.5587  140.4998  169.0786 C.3     1  UNL1        0.0538
     17 C         140.0305  139.9156  166.5132 C.ar    1  UNL1        0.0963
     18 C         137.6987  141.6721  163.0707 C.3     1  UNL1        0.2543
     19 O         137.7425  140.1824  163.2403 O.3     1  UNL1       -0.4551
     20 N         143.5267  137.0610  156.9921 N.pl3   1  UNL1       -0.2786
     21 H         144.4355  137.4394  157.0021 H       1  UNL1        0.1555
     22 C         143.2113  135.8905  156.1085 C.ar    1  UNL1        0.1276
     23 C         142.6489  135.9606  154.7197 C.ar    1  UNL1        0.0244
     24 C         142.4930  134.5579  154.2115 C.ar    1  UNL1        0.0773
     25 N         142.9591  133.6210  155.2863 N.ar    1  UNL1       -0.1728
     26 N         143.4030  134.4446  156.4587 N.ar    1  UNL1       -0.2354
     27 C         141.9468  134.3150  152.8358 C.3     1  UNL1        0.0474
     28 C         141.5565  135.4748  151.9683 C.3     1  UNL1        0.0067
     29 C         141.7124  136.8774  152.4765 C.3     1  UNL1        0.0052
     30 C         142.2587  137.1203  153.8522 C.3     1  UNL1        0.0305
     31 C         143.9437  133.9153  157.7539 C.3     1  UNL1        0.1668
     32 C         144.5828  132.5591  157.8014 C.3     1  UNL1        0.2195
     33 F         145.5464  132.1460  156.7286 F       1  UNL1       -0.2321
@<TRIPOS>BOND
     1    18    19    1
     2    19     6    1
     3     6     7   ar
     4     7     8   ar
     5     8     1    1
     6     1     2   ar
     7     2     3   ar
     8     3     4   ar
     9     4    20    1
    10    20    22    1
    11    22    23   ar
    12    23    24   ar
    13    24    25   ar
    14    25    26   ar
    15    26    31    1
    16    31    32    1
    17    32    33    1
    18    24    27    1
    19    27    28    1
    20    28    29    1
    21    29    30    1
    22     4     5   ar
    23     8     9   ar
    24     9    10   ar
    25    10    11   ar
    26    11    12    1
    27    12    13   ar
    28    13    14   ar
    29    14    15   ar
    30    15    16    1
    31    15    17   ar
    32    11     6   ar
    33    17    12   ar
    34     5     1   ar
    35    26    22   ar
    36    30    23    1
    37    20    21    1
@<TRIPOS>MOLECULE
*****
 33 37 0 0 0
SMALL
GASTEIGER

@<TRIPOS>ATOM
      1 C         142.2059  138.5315  160.2222 C.ar    1  UNL1        0.1074
      2 C         141.0891  138.9408  159.3083 C.ar    1  UNL1        0.0588
      3 S         141.3630  138.3598  157.9528 S.2     1  UNL1       -0.0508
      4 C         142.6491  137.5915  158.0290 C.ar    1  UNL1        0.1646
      5 N         143.1700  137.6977  159.4316 N.ar    1  UNL1       -0.2224
      6 C         143.7983  139.6614  163.6774 C.ar    1  UNL1        0.2416
      7 N         143.6685  139.3001  162.2273 N.ar    1  UNL1       -0.2089
      8 C         142.3358  138.8928  161.6722 C.ar    1  UNL1        0.1026
      9 C         141.1329  138.8468  162.5673 C.ar    1  UNL1        0.0224
     10 C         141.2629  139.2081  164.0174 C.ar    1  UNL1        0.0239
     11 C         142.5956  139.6154  164.5724 C.ar    1  UNL1        0.1189
     12 N         142.7254  139.9767  166.0224 N.ar    1  UNL1       -0.2826
     13 C         142.8650  139.0117  167.1624 C.ar    1  UNL1        0.1826
     14 N         142.9644  139.8049  168.4315 N.ar    1  UNL1       -0.2280
     15 C         142.8862  141.2602  168.0760 C.ar    1  UNL1        0.0786
     16 C         142.9453  142.4077  169.0402 C.3     1  UNL1        0.0538
     17 C         142.7385  141.3662  166.5870 C.ar    1  UNL1        0.0963
     18 C         145.7212  141.3983  163.8665 C.3     1  UNL1        0.2543
     19 O         145.1310  140.0687  164.2323 O.3     1  UNL1       -0.4551
     20 N         143.3000  136.8476  156.9006 N.pl3   1  UNL1       -0.2786
     21 H         144.1375  137.1841  156.5075 H       1  UNL1        0.1555
     22 C         142.6747  135.5910  156.3714 C.ar    1  UNL1        0.1276
     23 C         143.1111  134.1901  156.6830 C.ar    1  UNL1        0.0244
     24 C         142.2095  133.2480  155.9418 C.ar    1  UNL1        0.0773
     25 N         141.2159  134.0667  155.1720 N.ar    1  UNL1       -0.1728
     26 N         141.5034  135.5147  155.4375 N.ar    1  UNL1       -0.2354
     27 C         142.4097  131.7665  156.0635 C.3     1  UNL1        0.0474
     28 C         143.5116  131.2270  156.9265 C.3     1  UNL1        0.0067
     29 C         144.4133  132.1692  157.6678 C.3     1  UNL1        0.0052
     30 C         144.2130  133.6507  157.5460 C.3     1  UNL1        0.0305
     31 C         140.7516  136.6815  154.8689 C.3     1  UNL1        0.1668
     32 C         139.3040  136.8785  155.2087 C.3     1  UNL1        0.2195
     33 F         138.2713  136.8766  154.1208 F       1  UNL1       -0.2321
@<TRIPOS>BOND
     1    18    19    1
     2    19     6    1
     3     6     7   ar
     4     7     8   ar
     5     8     1    1
     6     1     2   ar
     7     2     3   ar
     8     3     4   ar
     9     4    20    1
    10    20    22    1
    11    22    23   ar
    12    23    24   ar
    13    24    25   ar
    14    25    26   ar
    15    26    31    1
    16    31    32    1
    17    32    33    1
    18    24    27    1
    19    27    28    1
    20    28    29    1
    21    29    30    1
    22     4     5   ar
    23     8     9   ar
    24     9    10   ar
    25    10    11   ar
    26    11    12    1
    27    12    13   ar
    28    13    14   ar
    29    14    15   ar
    30    15    16    1
    31    15    17   ar
    32    11     6   ar
    33    17    12   ar
    34     5     1   ar
    35    26    22   ar
    36    30    23    1
    37    20    21    1
@<TRIPOS>MOLECULE
*****
 33 37 0 0 0
SMALL
GASTEIGER

@<TRIPOS>ATOM
      1 C         143.3706  141.6285  162.5273 C.ar    1  UNL1        0.1074
      2 C         144.7985  141.1904  162.6658 C.ar    1  UNL1        0.0588
      3 S         144.9287  140.4357  163.9556 S.2     1  UNL1       -0.0508
      4 C         143.5813  140.4075  164.6141 C.ar    1  UNL1        0.1646
      5 N         142.6184  141.1446  163.7314 N.ar    1  UNL1       -0.2224
      6 C         140.9965  144.0377  160.4513 C.ar    1  UNL1        0.2416
      7 N         141.5712  143.2534  161.5936 N.ar    1  UNL1       -0.2089
      8 C         142.7959  142.4128  161.3851 C.ar    1  UNL1        0.1026
      9 C         143.4460  142.3566  160.0344 C.ar    1  UNL1        0.0224
     10 C         142.8712  143.1410  158.8922 C.ar    1  UNL1        0.0239
     11 C         141.6465  143.9815  159.1007 C.ar    1  UNL1        0.1189
     12 N         141.0718  144.7658  157.9586 N.ar    1  UNL1       -0.2826
     13 C         141.7124  145.9448  157.2879 C.ar    1  UNL1        0.1826
     14 N         140.7922  146.4165  156.2014 N.ar    1  UNL1       -0.2280
     15 C         139.5827  145.5291  156.2005 C.ar    1  UNL1        0.0786
     16 C         138.4070  145.6420  155.2759 C.3     1  UNL1        0.0538
     17 C         139.7557  144.5089  157.2865 C.ar    1  UNL1        0.0963
     18 C         139.8267  146.0717  161.5669 C.3     1  UNL1        0.2543
     19 O         139.7718  144.8783  160.6599 O.3     1  UNL1       -0.4551
     20 N         143.2542  139.7563  165.9253 N.pl3   1  UNL1       -0.2786
     21 H         143.8597  139.0779  166.3026 H       1  UNL1        0.1555
     22 C         142.0045  140.1387  166.6615 C.ar    1  UNL1        0.1276
     23 C         141.9169  141.0998  167.8099 C.ar    1  UNL1        0.0244
     24 C         140.4813  141.1823  168.2368 C.ar    1  UNL1        0.0773
     25 N         139.6817  140.2722  167.3522 N.ar    1  UNL1       -0.1728
     26 N         140.6231  139.6272  166.3787 N.ar    1  UNL1       -0.2354
     27 C         140.0877  142.0754  169.3757 C.3     1  UNL1        0.0474
     28 C         141.1296  142.8860  170.0878 C.3     1  UNL1        0.0067
     29 C         142.5653  142.8035  169.6610 C.3     1  UNL1        0.0052
     30 C         142.9589  141.9104  168.5220 C.3     1  UNL1        0.0305
     31 C         140.2488  138.6435  165.3099 C.3     1  UNL1        0.1668
     32 C         138.8176  138.2273  165.1417 C.3     1  UNL1        0.2195
     33 F         138.2898  137.0377  165.8876 F       1  UNL1       -0.2321
@<TRIPOS>BOND
     1    18    19    1
     2    19     6    1
     3     6     7   ar
     4     7     8   ar
     5     8     1    1
     6     1     2   ar
     7     2     3   ar
     8     3     4   ar
     9     4    20    1
    10    20    22    1
    11    22    23   ar
    12    23    24   ar
    13    24    25   ar
    14    25    26   ar
    15    26    31    1
    16    31    32    1
    17    32    33    1
    18    24    27    1
    19    27    28    1
    20    28    29    1
    21    29    30    1
    22     4     5   ar
    23     8     9   ar
    24     9    10   ar
    25    10    11   ar
    26    11    12    1
    27    12    13   ar
    28    13    14   ar
    29    14    15   ar
    30    15    16    1
    31    15    17   ar
    32    11     6   ar
    33    17    12   ar
    34     5     1   ar
    35    26    22   ar
    36    30    23    1
    37    20    21    1
@<TRIPOS>MOLECULE
*****
 33 37 0 0 0
SMALL
GASTEIGER

@<TRIPOS>ATOM
      1 C         142.2607  138.0459  159.7577 C.ar    1  UNL1        0.1074
      2 C         141.1704  138.4770  158.8222 C.ar    1  UNL1        0.0588
      3 S         141.5549  138.0530  157.4356 S.2     1  UNL1       -0.0508
      4 C         142.8829  137.3600  157.5144 C.ar    1  UNL1        0.1646
      5 N         143.3191  137.3556  158.9495 N.ar    1  UNL1       -0.2224
      6 C         143.5841  138.9231  163.3950 C.ar    1  UNL1        0.2416
      7 N         143.5570  138.7026  161.9115 N.ar    1  UNL1       -0.2089
      8 C         142.2879  138.2665  161.2412 C.ar    1  UNL1        0.1026
      9 C         141.0459  138.0510  162.0543 C.ar    1  UNL1        0.0224
     10 C         141.0732  138.2716  163.5378 C.ar    1  UNL1        0.0239
     11 C         142.3422  138.7076  164.2081 C.ar    1  UNL1        0.1189
     12 N         142.3694  138.9282  165.6915 N.ar    1  UNL1       -0.2826
     13 C         143.4350  138.4527  166.6343 C.ar    1  UNL1        0.1826
     14 N         143.0599  138.8936  168.0180 N.ar    1  UNL1       -0.2280
     15 C         141.7625  139.6416  167.9306 C.ar    1  UNL1        0.0786
     16 C         141.0220  140.2596  169.0794 C.3     1  UNL1        0.0538
     17 C         141.3358  139.6629  166.4927 C.ar    1  UNL1        0.0963
     18 C         145.3014  140.7872  163.9661 C.3     1  UNL1        0.2543
     19 O         144.8532  139.3592  164.0652 O.3     1  UNL1       -0.4551
     20 N         143.6415  136.7742  156.3604 N.pl3   1  UNL1       -0.2786
     21 H         144.4271  137.2442  155.9984 H       1  UNL1        0.1555
     22 C         143.2031  135.4721  155.7583 C.ar    1  UNL1        0.1276
     23 C         142.4957  135.3012  154.4467 C.ar    1  UNL1        0.0244
     24 C         142.2506  133.8359  154.2397 C.ar    1  UNL1        0.0773
     25 N         142.8065  133.1013  155.4235 N.ar    1  UNL1       -0.1728
     26 N         143.3952  134.1125  156.3620 N.ar    1  UNL1       -0.2354
     27 C         141.5528  133.3599  153.0002 C.3     1  UNL1        0.0474
     28 C         141.1002  134.3492  151.9676 C.3     1  UNL1        0.0067
     29 C         141.3454  135.8145  152.1745 C.3     1  UNL1        0.0052
     30 C         142.0431  136.2905  153.4140 C.3     1  UNL1        0.0305
     31 C         144.0594  133.8161  157.6739 C.3     1  UNL1        0.1668
     32 C         144.8447  132.5501  157.8478 C.3     1  UNL1        0.2195
     33 F         145.5876  131.9625  156.6847 F       1  UNL1       -0.2321
@<TRIPOS>BOND
     1    18    19    1
     2    19     6    1
     3     6     7   ar
     4     7     8   ar
     5     8     1    1
     6     1     2   ar
     7     2     3   ar
     8     3     4   ar
     9     4    20    1
    10    20    22    1
    11    22    23   ar
    12    23    24   ar
    13    24    25   ar
    14    25    26   ar
    15    26    31    1
    16    31    32    1
    17    32    33    1
    18    24    27    1
    19    27    28    1
    20    28    29    1
    21    29    30    1
    22     4     5   ar
    23     8     9   ar
    24     9    10   ar
    25    10    11   ar
    26    11    12    1
    27    12    13   ar
    28    13    14   ar
    29    14    15   ar
    30    15    16    1
    31    15    17   ar
    32    11     6   ar
    33    17    12   ar
    34     5     1   ar
    35    26    22   ar
    36    30    23    1
    37    20    21    1
@<TRIPOS>MOLECULE
*****
 33 37 0 0 0
SMALL
GASTEIGER

@<TRIPOS>ATOM
      1 C         142.7419  143.5870  162.8778 C.ar    1  UNL1        0.1074
      2 C         143.7769  144.3723  163.6276 C.ar    1  UNL1        0.0588
      3 S         144.1248  143.6108  164.8722 S.2     1  UNL1       -0.0508
      4 C         143.3049  142.3549  164.8916 C.ar    1  UNL1        0.1646
      5 N         142.4502  142.3401  163.6590 N.ar    1  UNL1       -0.2224
      6 C         142.2014  144.1245  158.9831 C.ar    1  UNL1        0.2416
      7 N         142.8338  143.7318  160.2854 N.ar    1  UNL1       -0.2089
      8 C         142.1097  143.9796  161.5755 C.ar    1  UNL1        0.1026
      9 C         140.7532  144.6199  161.5633 C.ar    1  UNL1        0.0224
     10 C         140.1210  145.0126  160.2608 C.ar    1  UNL1        0.0239
     11 C         140.8451  144.7648  158.9708 C.ar    1  UNL1        0.1189
     12 N         140.2128  145.1574  157.6685 N.ar    1  UNL1       -0.2826
     13 C         139.6396  144.2189  156.6483 C.ar    1  UNL1        0.1826
     14 N         139.1153  145.0389  155.5070 N.ar    1  UNL1       -0.2280
     15 C         139.3644  146.4843  155.8217 C.ar    1  UNL1        0.0786
     16 C         138.9993  147.6514  154.9531 C.3     1  UNL1        0.0538
     17 C         140.0428  146.5574  157.1576 C.ar    1  UNL1        0.0963
     18 C         143.2228  142.4725  157.2575 C.3     1  UNL1        0.2543
     19 O         142.9256  143.8767  157.6930 O.3     1  UNL1       -0.4551
     20 N         143.3345  141.2989  165.9567 N.pl3   1  UNL1       -0.2786
     21 H         144.1729  140.8220  166.1539 H       1  UNL1        0.1555
     22 C         142.0867  140.9698  166.7213 C.ar    1  UNL1        0.1276
     23 C         141.6537  141.5959  168.0138 C.ar    1  UNL1        0.0244
     24 C         140.3522  140.9698  168.4190 C.ar    1  UNL1        0.0773
     25 N         139.9809  139.9568  167.3769 N.ar    1  UNL1       -0.1728
     26 N         141.0529  139.9568  166.3277 N.ar    1  UNL1       -0.2354
     27 C         139.6734  141.4030  169.6845 C.3     1  UNL1        0.0474
     28 C         140.2961  142.4623  170.5448 C.3     1  UNL1        0.0067
     29 C         141.5975  143.0884  170.1396 C.3     1  UNL1        0.0052
     30 C         142.2764  142.6552  168.8741 C.3     1  UNL1        0.0305
     31 C         141.0853  139.0950  165.1004 C.3     1  UNL1        0.1668
     32 C         142.2161  138.1323  164.8895 C.3     1  UNL1        0.2195
     33 F         143.1563  137.8215  166.0161 F       1  UNL1       -0.2321
@<TRIPOS>BOND
     1    18    19    1
     2    19     6    1
     3     6     7   ar
     4     7     8   ar
     5     8     1    1
     6     1     2   ar
     7     2     3   ar
     8     3     4   ar
     9     4    20    1
    10    20    22    1
    11    22    23   ar
    12    23    24   ar
    13    24    25   ar
    14    25    26   ar
    15    26    31    1
    16    31    32    1
    17    32    33    1
    18    24    27    1
    19    27    28    1
    20    28    29    1
    21    29    30    1
    22     4     5   ar
    23     8     9   ar
    24     9    10   ar
    25    10    11   ar
    26    11    12    1
    27    12    13   ar
    28    13    14   ar
    29    14    15   ar
    30    15    16    1
    31    15    17   ar
    32    11     6   ar
    33    17    12   ar
    34     5     1   ar
    35    26    22   ar
    36    30    23    1
    37    20    21    1
@<TRIPOS>MOLECULE
*****
 33 37 0 0 0
SMALL
GASTEIGER

@<TRIPOS>ATOM
      1 C         142.2975  138.0535  158.2223 C.ar    1  UNL1        0.1074
      2 C         142.5368  139.0022  157.0854 C.ar    1  UNL1        0.0588
      3 S         143.2380  138.2497  155.9935 S.2     1  UNL1       -0.0508
      4 C         143.4320  136.8359  156.4557 C.ar    1  UNL1        0.1646
      5 N         142.8507  136.7147  157.8332 N.ar    1  UNL1       -0.2224
      6 C         141.7711  139.0857  162.0181 C.ar    1  UNL1        0.2416
      7 N         142.4454  138.7539  160.7199 N.ar    1  UNL1       -0.2089
      8 C         141.6233  138.3854  159.5205 C.ar    1  UNL1        0.1026
      9 C         140.1270  138.3489  159.6193 C.ar    1  UNL1        0.0224
     10 C         139.4528  138.6808  160.9175 C.ar    1  UNL1        0.0239
     11 C         140.2749  139.0492  162.1169 C.ar    1  UNL1        0.1189
     12 N         139.6006  139.3811  163.4150 N.ar    1  UNL1       -0.2826
     13 C         139.4215  140.7552  163.9895 C.ar    1  UNL1        0.1826
     14 N         138.6974  140.6206  165.2962 N.ar    1  UNL1       -0.2280
     15 C         138.4288  139.1632  165.5293 C.ar    1  UNL1        0.0786
     16 C         137.7256  138.5753  166.7166 C.3     1  UNL1        0.0538
     17 C         138.9871  138.3973  164.3667 C.ar    1  UNL1        0.0963
     18 C         144.0578  139.1318  163.2505 C.3     1  UNL1        0.2543
     19 O         142.5932  139.4541  163.2174 O.3     1  UNL1       -0.4551
     20 N         144.0915  135.7364  155.6771 N.pl3   1  UNL1       -0.2786
     21 H         144.9632  135.8923  155.2469 H       1  UNL1        0.1555
     22 C         143.4229  134.3993  155.5541 C.ar    1  UNL1        0.1276
     23 C         143.7798  133.1611  156.3219 C.ar    1  UNL1        0.0244
     24 C         142.8575  132.0622  155.8840 C.ar    1  UNL1        0.0773
     25 N         141.9305  132.6213  154.8457 N.ar    1  UNL1       -0.1728
     26 N         142.2799  134.0657  154.6418 N.ar    1  UNL1       -0.2354
     27 C         142.9809  130.6945  156.4874 C.3     1  UNL1        0.0474
     28 C         144.0266  130.4257  157.5286 C.3     1  UNL1        0.0067
     29 C         144.9489  131.5245  157.9664 C.3     1  UNL1        0.0052
     30 C         144.8256  132.8923  157.3631 C.3     1  UNL1        0.0305
     31 C         141.6049  135.0106  153.6922 C.3     1  UNL1        0.1668
     32 C         140.6343  136.0295  154.2114 C.3     1  UNL1        0.2195
     33 F         140.3458  136.1099  155.6812 F       1  UNL1       -0.2321
@<TRIPOS>BOND
     1    18    19    1
     2    19     6    1
     3     6     7   ar
     4     7     8   ar
     5     8     1    1
     6     1     2   ar
     7     2     3   ar
     8     3     4   ar
     9     4    20    1
    10    20    22    1
    11    22    23   ar
    12    23    24   ar
    13    24    25   ar
    14    25    26   ar
    15    26    31    1
    16    31    32    1
    17    32    33    1
    18    24    27    1
    19    27    28    1
    20    28    29    1
    21    29    30    1
    22     4     5   ar
    23     8     9   ar
    24     9    10   ar
    25    10    11   ar
    26    11    12    1
    27    12    13   ar
    28    13    14   ar
    29    14    15   ar
    30    15    16    1
    31    15    17   ar
    32    11     6   ar
    33    17    12   ar
    34     5     1   ar
    35    26    22   ar
    36    30    23    1
    37    20    21    1
