@<TRIPOS>MOLECULE
*****
 37 40 0 0 0
SMALL
GASTEIGER

@<TRIPOS>ATOM
      1 C         143.0519  143.3462  161.8433 C.ar    1  UNL1        0.0008
      2 C         143.9593  144.0916  162.7764 C.ar    1  UNL1       -0.0024
      3 C         143.4091  145.1845  163.6441 C.ar    1  UNL1        0.0028
      4 C         141.9514  145.5320  163.5786 C.ar    1  UNL1        0.0369
      5 C         141.0439  144.7866  162.6454 C.ar    1  UNL1        0.1389
      6 C         141.5941  143.6937  161.7777 C.ar    1  UNL1        0.0343
      7 C         143.6021  142.2534  160.9756 C.3     1  UNL1        0.1239
      8 C         142.2300  140.0505  160.8538 C.2     1  UNL1        0.4100
      9 O         141.2373  140.7188  159.9495 O.2     1  UNL1       -0.2258
     10 N         143.4125  140.8178  161.3669 N.am    1  UNL1       -0.2363
     11 O         142.0404  138.6149  161.2451 O.3     1  UNL1       -0.4101
     12 C         138.3695  137.2003  165.7754 C.3     1  UNL1        0.0310
     13 C         139.2872  137.5539  164.6428 C.ar    1  UNL1       -0.0217
     14 C         138.7246  137.8319  163.2804 C.ar    1  UNL1       -0.0011
     15 C         139.6423  138.1856  162.1478 C.ar    1  UNL1        0.0373
     16 C         141.1227  138.2613  162.3777 C.ar    1  UNL1        0.1500
     17 C         141.6853  137.9833  163.7401 C.ar    1  UNL1        0.0373
     18 C         140.7675  137.6296  164.8727 C.ar    1  UNL1       -0.0011
     19 C         144.4052  140.1495  162.2712 C.3     1  UNL1        0.1388
     20 C         144.7107  140.7396  163.6160 C.2     1  UNL1        0.0706
     21 O         146.0418  141.3837  163.8676 O.co2   1  UNL1       -0.5474
     22 O         143.6850  140.6855  164.7092 O.co2   1  UNL1       -0.5474
     23 O         139.5862  145.1341  162.5799 O.3     1  UNL1       -0.4690
     24 C         138.6589  144.6872  163.6710 C.3     1  UNL1        0.2510
     25 C         138.9764  143.4569  164.4681 C.ar    1  UNL1        0.1052
     26 N         139.9114  143.3817  165.6387 N.ar    1  UNL1       -0.2393
     27 C         139.9277  141.9642  166.1288 C.ar    1  UNL1        0.1101
     28 S         139.0027  141.1631  165.2611 S.2     1  UNL1       -0.0711
     29 C         138.4148  142.0858  164.2348 C.ar    1  UNL1        0.0261
     30 C         137.4369  141.7042  163.1632 C.3     1  UNL1        0.0396
     31 C         140.7282  141.4397  167.2837 C.ar    1  UNL1        0.0239
     32 C         140.1951  140.3102  168.1143 C.ar    1  UNL1        0.0029
     33 C         140.9957  139.7856  169.2693 C.ar    1  UNL1        0.0115
     34 C         142.3295  140.3906  169.5936 C.ar    1  UNL1        0.0577
     35 CL        143.1301  139.8661  170.7485 Cl      1  UNL1       -0.0822
     36 C         142.8626  141.5201  168.7629 C.ar    1  UNL1        0.0115
     37 C         142.0620  142.0446  167.6079 C.ar    1  UNL1        0.0029
@<TRIPOS>UNITY_ATOM_ATTR
21 1
charge -1
@<TRIPOS>BOND
     1    12    13    1
     2    13    14   ar
     3    14    15   ar
     4    15    16   ar
     5    16    11    1
     6    11     8    1
     7     8     9    2
     8     8    10   am
     9    10    19    1
    10    19    20    1
    11    20    21   ar
    12    20    22   ar
    13    10     7    1
    14     7     1    1
    15     1     2   ar
    16     2     3   ar
    17     3     4   ar
    18     4     5   ar
    19     5    23    1
    20    23    24    1
    21    24    25    1
    22    25    26   ar
    23    26    27   ar
    24    27    31    1
    25    31    32   ar
    26    32    33   ar
    27    33    34   ar
    28    34    35    1
    29    34    36   ar
    30    36    37   ar
    31    27    28   ar
    32    28    29   ar
    33    29    30    1
    34     5     6   ar
    35    16    17   ar
    36    17    18   ar
    37    18    13   ar
    38     6     1   ar
    39    29    25   ar
    40    37    31   ar
@<TRIPOS>MOLECULE
*****
 37 40 0 0 0
SMALL
GASTEIGER

@<TRIPOS>ATOM
      1 C         143.4491  143.5425  161.7872 C.ar    1  UNL1        0.0008
      2 C         144.2924  144.2323  162.8182 C.ar    1  UNL1       -0.0024
      3 C         143.6721  145.2342  163.7463 C.ar    1  UNL1        0.0028
      4 C         142.2085  145.5462  163.6436 C.ar    1  UNL1        0.0369
      5 C         141.3652  144.8563  162.6126 C.ar    1  UNL1        0.1389
      6 C         141.9855  143.8545  161.6844 C.ar    1  UNL1        0.0343
      7 C         144.0694  142.5406  160.8590 C.3     1  UNL1        0.1239
      8 C         144.1506  140.2202  162.0248 C.2     1  UNL1        0.4100
      9 O         145.0713  140.7774  163.0697 O.2     1  UNL1       -0.2258
     10 N         143.6497  141.1019  160.9194 N.am    1  UNL1       -0.2363
     11 O         143.7309  138.7814  162.0852 O.3     1  UNL1       -0.4101
     12 C         138.8315  137.2130  165.1732 C.3     1  UNL1        0.0310
     13 C         140.0564  137.6051  164.4012 C.ar    1  UNL1       -0.0217
     14 C         141.3159  137.9719  165.1286 C.ar    1  UNL1       -0.0011
     15 C         142.5407  138.3640  164.3566 C.ar    1  UNL1        0.0373
     16 C         142.5061  138.3893  162.8572 C.ar    1  UNL1        0.1500
     17 C         141.2466  138.0225  162.1298 C.ar    1  UNL1        0.0373
     18 C         140.0217  137.6304  162.9018 C.ar    1  UNL1       -0.0011
     19 C         142.7289  140.5447  159.8745 C.3     1  UNL1        0.1388
     20 C         143.2416  139.5481  158.8775 C.2     1  UNL1        0.0706
     21 O         142.6936  138.1518  158.8629 O.co2   1  UNL1       -0.5474
     22 O         144.3023  139.9478  157.8950 O.co2   1  UNL1       -0.5474
     23 O         139.9016  145.1683  162.5098 O.3     1  UNL1       -0.4690
     24 C         138.9795  144.8212  163.6409 C.3     1  UNL1        0.2510
     25 C         139.1282  143.5103  164.3544 C.ar    1  UNL1        0.1052
     26 N         140.0305  143.2390  165.5217 N.ar    1  UNL1       -0.2393
     27 C         139.8606  141.8014  165.9147 C.ar    1  UNL1        0.1101
     28 S         138.8532  141.1841  164.9904 S.2     1  UNL1       -0.0711
     29 C         138.4006  142.2403  164.0261 C.ar    1  UNL1        0.0261
     30 C         137.3966  142.0583  162.9266 C.3     1  UNL1        0.0396
     31 C         140.5729  141.1037  167.0352 C.ar    1  UNL1        0.0239
     32 C         139.7950  140.5700  168.2014 C.ar    1  UNL1        0.0029
     33 C         140.5072  139.8722  169.3220 C.ar    1  UNL1        0.0115
     34 C         141.9976  139.7080  169.2763 C.ar    1  UNL1        0.0577
     35 CL        142.7100  139.0102  170.3969 Cl      1  UNL1       -0.0822
     36 C         142.7755  140.2417  168.1101 C.ar    1  UNL1        0.0115
     37 C         142.0632  140.9395  166.9896 C.ar    1  UNL1        0.0029
@<TRIPOS>UNITY_ATOM_ATTR
21 1
charge -1
@<TRIPOS>BOND
     1    12    13    1
     2    13    14   ar
     3    14    15   ar
     4    15    16   ar
     5    16    11    1
     6    11     8    1
     7     8     9    2
     8     8    10   am
     9    10    19    1
    10    19    20    1
    11    20    21   ar
    12    20    22   ar
    13    10     7    1
    14     7     1    1
    15     1     2   ar
    16     2     3   ar
    17     3     4   ar
    18     4     5   ar
    19     5    23    1
    20    23    24    1
    21    24    25    1
    22    25    26   ar
    23    26    27   ar
    24    27    31    1
    25    31    32   ar
    26    32    33   ar
    27    33    34   ar
    28    34    35    1
    29    34    36   ar
    30    36    37   ar
    31    27    28   ar
    32    28    29   ar
    33    29    30    1
    34     5     6   ar
    35    16    17   ar
    36    17    18   ar
    37    18    13   ar
    38     6     1   ar
    39    29    25   ar
    40    37    31   ar
@<TRIPOS>MOLECULE
*****
 37 40 0 0 0
SMALL
GASTEIGER

@<TRIPOS>ATOM
      1 C         141.0984  144.8840  160.8741 C.ar    1  UNL1        0.0008
      2 C         141.0173  145.4888  159.5038 C.ar    1  UNL1       -0.0024
      3 C         141.6741  144.8042  158.3419 C.ar    1  UNL1        0.0028
      4 C         142.4119  143.5150  158.5502 C.ar    1  UNL1        0.0369
      5 C         142.4930  142.9102  159.9205 C.ar    1  UNL1        0.1389
      6 C         141.8363  143.5947  161.0825 C.ar    1  UNL1        0.0343
      7 C         140.4416  145.5685  162.0360 C.3     1  UNL1        0.1239
      8 C         140.5270  144.2384  164.2662 C.2     1  UNL1        0.4100
      9 O         141.9934  144.5311  164.3846 O.2     1  UNL1       -0.2258
     10 N         139.7511  144.7572  163.0919 N.am    1  UNL1       -0.2363
     11 O         139.8364  143.4271  165.3221 O.3     1  UNL1       -0.4101
     12 C         139.6073  137.4508  164.8416 C.3     1  UNL1        0.0310
     13 C         139.6646  138.9449  164.9617 C.ar    1  UNL1       -0.0217
     14 C         140.0117  139.7807  163.7655 C.ar    1  UNL1       -0.0011
     15 C         140.0690  141.2748  163.8856 C.ar    1  UNL1        0.0373
     16 C         139.7791  141.9331  165.2019 C.ar    1  UNL1        0.1500
     17 C         139.4320  141.0972  166.3981 C.ar    1  UNL1        0.0373
     18 C         139.3747  139.6031  166.2780 C.ar    1  UNL1       -0.0011
     19 C         138.2847  144.4646  162.9735 C.3     1  UNL1        0.1388
     20 C         137.8190  143.2661  162.2011 C.2     1  UNL1        0.0706
     21 O         138.1314  143.1485  160.7386 O.co2   1  UNL1       -0.5474
     22 O         137.0409  142.1851  162.8910 O.co2   1  UNL1       -0.5474
     23 O         143.2309  141.6210  160.1288 O.3     1  UNL1       -0.4690
     24 C         144.2623  141.5139  161.2126 C.3     1  UNL1        0.2510
     25 C         143.9465  140.7728  162.4779 C.ar    1  UNL1        0.1052
     26 N         143.6819  141.3906  163.8190 N.ar    1  UNL1       -0.2393
     27 C         143.4117  140.2835  164.7943 C.ar    1  UNL1        0.1101
     28 S         143.5094  138.9813  164.0561 S.2     1  UNL1       -0.0711
     29 C         143.8399  139.2838  162.6245 C.ar    1  UNL1        0.0261
     30 C         144.0304  138.2744  161.5314 C.3     1  UNL1        0.0396
     31 C         143.0988  140.4493  166.2518 C.ar    1  UNL1        0.0239
     32 C         143.0307  141.8220  166.8528 C.ar    1  UNL1        0.0029
     33 C         142.7178  141.9879  168.3104 C.ar    1  UNL1        0.0115
     34 C         142.4730  140.7811  169.1670 C.ar    1  UNL1        0.0577
     35 CL        142.1602  140.9469  170.6247 Cl      1  UNL1       -0.0822
     36 C         142.5412  139.4084  168.5660 C.ar    1  UNL1        0.0115
     37 C         142.8541  139.2426  167.1084 C.ar    1  UNL1        0.0029
@<TRIPOS>UNITY_ATOM_ATTR
21 1
charge -1
@<TRIPOS>BOND
     1    12    13    1
     2    13    14   ar
     3    14    15   ar
     4    15    16   ar
     5    16    11    1
     6    11     8    1
     7     8     9    2
     8     8    10   am
     9    10    19    1
    10    19    20    1
    11    20    21   ar
    12    20    22   ar
    13    10     7    1
    14     7     1    1
    15     1     2   ar
    16     2     3   ar
    17     3     4   ar
    18     4     5   ar
    19     5    23    1
    20    23    24    1
    21    24    25    1
    22    25    26   ar
    23    26    27   ar
    24    27    31    1
    25    31    32   ar
    26    32    33   ar
    27    33    34   ar
    28    34    35    1
    29    34    36   ar
    30    36    37   ar
    31    27    28   ar
    32    28    29   ar
    33    29    30    1
    34     5     6   ar
    35    16    17   ar
    36    17    18   ar
    37    18    13   ar
    38     6     1   ar
    39    29    25   ar
    40    37    31   ar
@<TRIPOS>MOLECULE
*****
 37 40 0 0 0
SMALL
GASTEIGER

@<TRIPOS>ATOM
      1 C         141.3382  144.2976  161.6216 C.ar    1  UNL1        0.0008
      2 C         141.2219  145.2746  162.7539 C.ar    1  UNL1       -0.0024
      3 C         142.3844  145.4963  163.6755 C.ar    1  UNL1        0.0028
      4 C         143.6632  144.7412  163.4649 C.ar    1  UNL1        0.0369
      5 C         143.7796  143.7642  162.3327 C.ar    1  UNL1        0.1389
      6 C         142.6171  143.5424  161.4110 C.ar    1  UNL1        0.0343
      7 C         140.1758  144.0758  160.7000 C.3     1  UNL1        0.1239
      8 C         138.1514  142.8204  161.7373 C.2     1  UNL1        0.4100
      9 O         137.7910  144.0483  162.5199 O.2     1  UNL1       -0.2258
     10 N         139.3439  142.8342  160.8274 N.am    1  UNL1       -0.2363
     11 O         137.3196  141.5788  161.8647 O.3     1  UNL1       -0.4101
     12 C         139.1060  137.1278  165.4698 C.3     1  UNL1        0.0310
     13 C         138.6594  138.2405  164.5686 C.ar    1  UNL1       -0.0217
     14 C         138.3371  139.5879  165.1436 C.ar    1  UNL1       -0.0011
     15 C         137.8904  140.7006  164.2424 C.ar    1  UNL1        0.0373
     16 C         137.7662  140.4660  162.7660 C.ar    1  UNL1        0.1500
     17 C         138.0885  139.1187  162.1910 C.ar    1  UNL1        0.0373
     18 C         138.5351  138.0059  163.0923 C.ar    1  UNL1       -0.0011
     19 C         139.7044  141.6063  160.0448 C.3     1  UNL1        0.1388
     20 C         138.9323  141.2512  158.8088 C.2     1  UNL1        0.0706
     21 O         139.2595  141.9143  157.5037 O.co2   1  UNL1       -0.5474
     22 O         137.8331  140.2329  158.8779 O.co2   1  UNL1       -0.5474
     23 O         145.0583  143.0090  162.1221 O.3     1  UNL1       -0.4690
     24 C         145.4689  141.9432  163.0945 C.3     1  UNL1        0.2510
     25 C         144.4248  141.1602  163.8340 C.ar    1  UNL1        0.1052
     26 N         143.9635  141.4130  165.2388 N.ar    1  UNL1       -0.2393
     27 C         142.9124  140.3959  165.5716 C.ar    1  UNL1        0.1101
     28 S         142.7240  139.5146  164.3725 S.2     1  UNL1       -0.0711
     29 C         143.6587  139.9870  163.2986 C.ar    1  UNL1        0.0261
     30 C         143.8022  139.3908  161.9297 C.3     1  UNL1        0.0396
     31 C         142.1785  140.2805  166.8746 C.ar    1  UNL1        0.0239
     32 C         140.8487  140.9523  167.0485 C.ar    1  UNL1        0.0029
     33 C         140.1147  140.8369  168.3516 C.ar    1  UNL1        0.0115
     34 C         140.7106  140.0496  169.4808 C.ar    1  UNL1        0.0577
     35 CL        139.9767  139.9342  170.7839 Cl      1  UNL1       -0.0822
     36 C         142.0405  139.3778  169.3069 C.ar    1  UNL1        0.0115
     37 C         142.7744  139.4933  168.0038 C.ar    1  UNL1        0.0029
@<TRIPOS>UNITY_ATOM_ATTR
21 1
charge -1
@<TRIPOS>BOND
     1    12    13    1
     2    13    14   ar
     3    14    15   ar
     4    15    16   ar
     5    16    11    1
     6    11     8    1
     7     8     9    2
     8     8    10   am
     9    10    19    1
    10    19    20    1
    11    20    21   ar
    12    20    22   ar
    13    10     7    1
    14     7     1    1
    15     1     2   ar
    16     2     3   ar
    17     3     4   ar
    18     4     5   ar
    19     5    23    1
    20    23    24    1
    21    24    25    1
    22    25    26   ar
    23    26    27   ar
    24    27    31    1
    25    31    32   ar
    26    32    33   ar
    27    33    34   ar
    28    34    35    1
    29    34    36   ar
    30    36    37   ar
    31    27    28   ar
    32    28    29   ar
    33    29    30    1
    34     5     6   ar
    35    16    17   ar
    36    17    18   ar
    37    18    13   ar
    38     6     1   ar
    39    29    25   ar
    40    37    31   ar
@<TRIPOS>MOLECULE
*****
 37 40 0 0 0
SMALL
GASTEIGER

@<TRIPOS>ATOM
      1 C         140.7205  144.1109  161.1537 C.ar    1  UNL1        0.0008
      2 C         140.4937  145.4815  161.7193 C.ar    1  UNL1       -0.0024
      3 C         139.2130  145.7953  162.4344 C.ar    1  UNL1        0.0028
      4 C         138.1591  144.7384  162.5840 C.ar    1  UNL1        0.0369
      5 C         138.3859  143.3677  162.0184 C.ar    1  UNL1        0.1389
      6 C         139.6666  143.0539  161.3033 C.ar    1  UNL1        0.0343
      7 C         142.0011  143.7971  160.4386 C.3     1  UNL1        0.1239
      8 C         144.0112  143.3176  162.0134 C.2     1  UNL1        0.4100
      9 O         144.0659  144.7697  162.3855 O.2     1  UNL1       -0.2258
     10 N         142.9787  142.8313  161.0399 N.am    1  UNL1       -0.2363
     11 O         144.9888  142.3519  162.6147 O.3     1  UNL1       -0.4101
     12 C         143.2163  138.5930  166.9424 C.3     1  UNL1        0.0310
     13 C         143.6594  139.5328  165.8605 C.ar    1  UNL1       -0.0217
     14 C         143.2104  140.9638  165.8797 C.ar    1  UNL1       -0.0011
     15 C         143.6535  141.9035  164.7978 C.ar    1  UNL1        0.0373
     16 C         144.5457  141.4122  163.6966 C.ar    1  UNL1        0.1500
     17 C         144.9947  139.9811  163.6773 C.ar    1  UNL1        0.0373
     18 C         144.5516  139.0414  164.7593 C.ar    1  UNL1       -0.0011
     19 C         142.9239  141.3793  160.6677 C.3     1  UNL1        0.1388
     20 C         143.8358  140.8426  159.6046 C.2     1  UNL1        0.0706
     21 O         144.1043  139.3691  159.5205 O.co2   1  UNL1       -0.5474
     22 O         144.4793  141.7793  158.6255 O.co2   1  UNL1       -0.5474
     23 O         137.3320  142.3109  162.1680 O.3     1  UNL1       -0.4690
     24 C         137.7287  140.8723  162.3202 C.3     1  UNL1        0.2510
     25 C         138.3790  140.4038  163.5880 C.ar    1  UNL1        0.1052
     26 N         138.6890  141.2521  164.7857 N.ar    1  UNL1       -0.2393
     27 C         139.3351  140.3773  165.8187 C.ar    1  UNL1        0.1101
     28 S         139.4245  138.9882  165.2596 S.2     1  UNL1       -0.0711
     29 C         138.8336  139.0046  163.8809 C.ar    1  UNL1        0.0261
     30 C         138.7176  137.8284  162.9573 C.3     1  UNL1        0.0396
     31 C         139.8087  140.8146  167.1731 C.ar    1  UNL1        0.0239
     32 C         139.7733  139.8555  168.3258 C.ar    1  UNL1        0.0029
     33 C         140.2469  140.2928  169.6803 C.ar    1  UNL1        0.0115
     34 C         140.7559  141.6894  169.8819 C.ar    1  UNL1        0.0577
     35 CL        141.2295  142.1267  171.2363 Cl      1  UNL1       -0.0822
     36 C         140.7913  142.6485  168.7292 C.ar    1  UNL1        0.0115
     37 C         140.3177  142.2111  167.3747 C.ar    1  UNL1        0.0029
@<TRIPOS>UNITY_ATOM_ATTR
21 1
charge -1
@<TRIPOS>BOND
     1    12    13    1
     2    13    14   ar
     3    14    15   ar
     4    15    16   ar
     5    16    11    1
     6    11     8    1
     7     8     9    2
     8     8    10   am
     9    10    19    1
    10    19    20    1
    11    20    21   ar
    12    20    22   ar
    13    10     7    1
    14     7     1    1
    15     1     2   ar
    16     2     3   ar
    17     3     4   ar
    18     4     5   ar
    19     5    23    1
    20    23    24    1
    21    24    25    1
    22    25    26   ar
    23    26    27   ar
    24    27    31    1
    25    31    32   ar
    26    32    33   ar
    27    33    34   ar
    28    34    35    1
    29    34    36   ar
    30    36    37   ar
    31    27    28   ar
    32    28    29   ar
    33    29    30    1
    34     5     6   ar
    35    16    17   ar
    36    17    18   ar
    37    18    13   ar
    38     6     1   ar
    39    29    25   ar
    40    37    31   ar
@<TRIPOS>MOLECULE
*****
 37 40 0 0 0
SMALL
GASTEIGER

@<TRIPOS>ATOM
      1 C         142.7675  143.0337  160.1965 C.ar    1  UNL1        0.0008
      2 C         142.0810  142.9674  158.8645 C.ar    1  UNL1       -0.0024
      3 C         140.8775  143.8221  158.5977 C.ar    1  UNL1        0.0028
      4 C         140.3605  144.7430  159.6629 C.ar    1  UNL1        0.0369
      5 C         141.0471  144.8093  160.9950 C.ar    1  UNL1        0.1389
      6 C         142.2506  143.9546  161.2618 C.ar    1  UNL1        0.0343
      7 C         143.9710  142.1790  160.4633 C.3     1  UNL1        0.1239
      8 C         144.0316  139.6876  161.1975 C.2     1  UNL1        0.4100
      9 O         144.1748  139.2687  159.7643 O.2     1  UNL1       -0.2258
     10 N         143.9297  141.1428  161.5470 N.am    1  UNL1       -0.2363
     11 O         143.9903  138.6514  162.2812 O.3     1  UNL1       -0.4101
     12 C         138.8454  137.5165  165.1521 C.3     1  UNL1        0.0310
     13 C         140.1316  137.8002  164.4344 C.ar    1  UNL1       -0.0217
     14 C         141.3630  138.1550  165.2140 C.ar    1  UNL1       -0.0011
     15 C         142.6492  138.4387  164.4963 C.ar    1  UNL1        0.0373
     16 C         142.7041  138.3676  162.9989 C.ar    1  UNL1        0.1500
     17 C         141.4727  138.0128  162.2193 C.ar    1  UNL1        0.0373
     18 C         140.1864  137.7291  162.9371 C.ar    1  UNL1       -0.0011
     19 C         143.7865  141.5617  162.9802 C.3     1  UNL1        0.1388
     20 C         144.9830  142.0489  163.7423 C.2     1  UNL1        0.0706
     21 O         144.8085  143.0223  164.8702 O.co2   1  UNL1       -0.5474
     22 O         146.3541  141.5627  163.3766 O.co2   1  UNL1       -0.5474
     23 O         140.5302  145.7302  162.0602 O.3     1  UNL1       -0.4690
     24 C         139.4147  145.2858  162.9592 C.3     1  UNL1        0.2510
     25 C         139.4806  143.9458  163.6300 C.ar    1  UNL1        0.1052
     26 N         140.1957  143.6355  164.9116 N.ar    1  UNL1       -0.2393
     27 C         140.0000  142.1788  165.2107 C.ar    1  UNL1        0.1101
     28 S         139.1640  141.5885  164.1140 S.2     1  UNL1       -0.0711
     29 C         138.8430  142.6807  163.1370 C.ar    1  UNL1        0.0261
     30 C         138.0276  142.5334  161.8867 C.3     1  UNL1        0.0396
     31 C         140.5447  141.4416  166.3980 C.ar    1  UNL1        0.0239
     32 C         139.6262  140.6308  167.2635 C.ar    1  UNL1        0.0029
     33 C         140.1709  139.8936  168.4509 C.ar    1  UNL1        0.0115
     34 C         141.6341  139.9672  168.7728 C.ar    1  UNL1        0.0577
     35 CL        142.1789  139.2300  169.9602 Cl      1  UNL1       -0.0822
     36 C         142.5526  140.7780  167.9073 C.ar    1  UNL1        0.0115
     37 C         142.0079  141.5152  166.7199 C.ar    1  UNL1        0.0029
@<TRIPOS>UNITY_ATOM_ATTR
21 1
charge -1
@<TRIPOS>BOND
     1    12    13    1
     2    13    14   ar
     3    14    15   ar
     4    15    16   ar
     5    16    11    1
     6    11     8    1
     7     8     9    2
     8     8    10   am
     9    10    19    1
    10    19    20    1
    11    20    21   ar
    12    20    22   ar
    13    10     7    1
    14     7     1    1
    15     1     2   ar
    16     2     3   ar
    17     3     4   ar
    18     4     5   ar
    19     5    23    1
    20    23    24    1
    21    24    25    1
    22    25    26   ar
    23    26    27   ar
    24    27    31    1
    25    31    32   ar
    26    32    33   ar
    27    33    34   ar
    28    34    35    1
    29    34    36   ar
    30    36    37   ar
    31    27    28   ar
    32    28    29   ar
    33    29    30    1
    34     5     6   ar
    35    16    17   ar
    36    17    18   ar
    37    18    13   ar
    38     6     1   ar
    39    29    25   ar
    40    37    31   ar
@<TRIPOS>MOLECULE
*****
 37 40 0 0 0
SMALL
GASTEIGER

@<TRIPOS>ATOM
      1 C         141.3042  142.0262  158.7475 C.ar    1  UNL1        0.0008
      2 C         140.3452  142.9679  158.0816 C.ar    1  UNL1       -0.0024
      3 C         140.2460  144.3905  158.5467 C.ar    1  UNL1        0.0028
      4 C         141.1059  144.8714  159.6778 C.ar    1  UNL1        0.0369
      5 C         142.0650  143.9297  160.3437 C.ar    1  UNL1        0.1389
      6 C         142.1641  142.5071  159.8786 C.ar    1  UNL1        0.0343
      7 C         141.4034  140.6036  158.2823 C.3     1  UNL1        0.1239
      8 C         142.4691  138.8254  159.8483 C.2     1  UNL1        0.4100
      9 O         143.8371  139.2928  159.4481 O.2     1  UNL1       -0.2258
     10 N         141.2522  139.4808  159.2654 N.am    1  UNL1       -0.2363
     11 O         142.3179  137.7026  160.8314 O.3     1  UNL1       -0.4101
     12 C         143.0158  138.7392  166.6997 C.3     1  UNL1        0.0310
     13 C         142.8413  138.4801  165.2327 C.ar    1  UNL1       -0.0217
     14 C         143.8521  138.9998  164.2538 C.ar    1  UNL1       -0.0011
     15 C         143.6777  138.7407  162.7868 C.ar    1  UNL1        0.0373
     16 C         142.4924  137.9618  162.2984 C.ar    1  UNL1        0.1500
     17 C         141.4816  137.4420  163.2773 C.ar    1  UNL1        0.0373
     18 C         141.6561  137.7012  164.7444 C.ar    1  UNL1       -0.0011
     19 C         139.8843  139.0134  159.6655 C.3     1  UNL1        0.1388
     20 C         139.1744  139.6672  160.8138 C.2     1  UNL1        0.0706
     21 O         139.9206  140.5943  161.7270 O.co2   1  UNL1       -0.5474
     22 O         137.7184  139.3940  161.0490 O.co2   1  UNL1       -0.5474
     23 O         142.9248  144.4106  161.4748 O.3     1  UNL1       -0.4690
     24 C         142.2981  144.7966  162.7818 C.3     1  UNL1        0.2510
     25 C         142.0898  143.7623  163.8481 C.ar    1  UNL1        0.1052
     26 N         140.8598  142.9244  164.0354 N.ar    1  UNL1       -0.2393
     27 C         141.0847  142.0286  165.2173 C.ar    1  UNL1        0.1101
     28 S         142.4537  142.3128  165.7605 S.2     1  UNL1       -0.0711
     29 C         143.0749  143.3844  164.9143 C.ar    1  UNL1        0.0261
     30 C         144.4412  143.9743  165.1014 C.3     1  UNL1        0.0396
     31 C         140.1115  141.0248  165.7606 C.ar    1  UNL1        0.0239
     32 C         140.1068  140.7015  167.2253 C.ar    1  UNL1        0.0029
     33 C         139.1336  139.6977  167.7688 C.ar    1  UNL1        0.0115
     34 C         138.1650  139.0172  166.8473 C.ar    1  UNL1        0.0577
     35 CL        137.1918  138.0134  167.3907 Cl      1  UNL1       -0.0822
     36 C         138.1697  139.3406  165.3826 C.ar    1  UNL1        0.0115
     37 C         139.1430  140.3444  164.8393 C.ar    1  UNL1        0.0029
@<TRIPOS>UNITY_ATOM_ATTR
21 1
charge -1
@<TRIPOS>BOND
     1    12    13    1
     2    13    14   ar
     3    14    15   ar
     4    15    16   ar
     5    16    11    1
     6    11     8    1
     7     8     9    2
     8     8    10   am
     9    10    19    1
    10    19    20    1
    11    20    21   ar
    12    20    22   ar
    13    10     7    1
    14     7     1    1
    15     1     2   ar
    16     2     3   ar
    17     3     4   ar
    18     4     5   ar
    19     5    23    1
    20    23    24    1
    21    24    25    1
    22    25    26   ar
    23    26    27   ar
    24    27    31    1
    25    31    32   ar
    26    32    33   ar
    27    33    34   ar
    28    34    35    1
    29    34    36   ar
    30    36    37   ar
    31    27    28   ar
    32    28    29   ar
    33    29    30    1
    34     5     6   ar
    35    16    17   ar
    36    17    18   ar
    37    18    13   ar
    38     6     1   ar
    39    29    25   ar
    40    37    31   ar
@<TRIPOS>MOLECULE
*****
 37 40 0 0 0
SMALL
GASTEIGER

@<TRIPOS>ATOM
      1 C         140.7543  142.5600  158.9742 C.ar    1  UNL1        0.0008
      2 C         141.5269  143.5474  158.1507 C.ar    1  UNL1       -0.0024
      3 C         141.4845  145.0068  158.4946 C.ar    1  UNL1        0.0028
      4 C         140.6695  145.4788  159.6620 C.ar    1  UNL1        0.0369
      5 C         139.8968  144.4914  160.4856 C.ar    1  UNL1        0.1389
      6 C         139.9392  143.0320  160.1417 C.ar    1  UNL1        0.0343
      7 C         140.7968  141.1006  158.6303 C.3     1  UNL1        0.1239
      8 C         140.0308  139.0753  160.0662 C.2     1  UNL1        0.4100
      9 O         138.7050  139.0793  159.3646 O.2     1  UNL1       -0.2258
     10 N         141.0767  140.0860  159.6990 N.am    1  UNL1       -0.2363
     11 O         140.3108  138.0608  161.1349 O.3     1  UNL1       -0.4101
     12 C         138.4476  139.0318  166.7550 C.3     1  UNL1        0.0310
     13 C         138.9134  138.7890  165.3500 C.ar    1  UNL1       -0.0217
     14 C         138.4685  139.6999  164.2444 C.ar    1  UNL1       -0.0011
     15 C         138.9342  139.4572  162.8394 C.ar    1  UNL1        0.0373
     16 C         139.8450  138.3035  162.5399 C.ar    1  UNL1        0.1500
     17 C         140.2899  137.3926  163.6455 C.ar    1  UNL1        0.0373
     18 C         139.8241  137.6354  165.0506 C.ar    1  UNL1       -0.0011
     19 C         142.4025  140.0820  160.4006 C.3     1  UNL1        0.1388
     20 C         143.5304  139.2489  159.8680 C.2     1  UNL1        0.0706
     21 O         144.0488  138.0898  160.6667 O.co2   1  UNL1       -0.5474
     22 O         144.1399  139.5747  158.5367 O.co2   1  UNL1       -0.5474
     23 O         139.0818  144.9635  161.6530 O.3     1  UNL1       -0.4690
     24 C         139.7599  145.3486  162.9343 C.3     1  UNL1        0.2510
     25 C         139.9949  144.3174  163.9979 C.ar    1  UNL1        0.1052
     26 N         140.9933  143.1994  163.9368 N.ar    1  UNL1       -0.2393
     27 C         140.8882  142.4140  165.2105 C.ar    1  UNL1        0.1101
     28 S         139.8250  143.0465  166.0588 S.2     1  UNL1       -0.0711
     29 C         139.2729  144.2228  165.3093 C.ar    1  UNL1        0.0261
     30 C         138.1890  145.1430  165.7874 C.3     1  UNL1        0.0396
     31 C         141.7033  141.2080  165.5723 C.ar    1  UNL1        0.0239
     32 C         142.4760  140.4796  164.5129 C.ar    1  UNL1        0.0029
     33 C         143.2911  139.2735  164.8746 C.ar    1  UNL1        0.0115
     34 C         143.3336  138.7958  166.2960 C.ar    1  UNL1        0.0577
     35 CL        144.1487  137.5897  166.6578 Cl      1  UNL1       -0.0822
     36 C         142.5609  139.5242  167.3554 C.ar    1  UNL1        0.0115
     37 C         141.7458  140.7304  166.9936 C.ar    1  UNL1        0.0029
@<TRIPOS>UNITY_ATOM_ATTR
21 1
charge -1
@<TRIPOS>BOND
     1    12    13    1
     2    13    14   ar
     3    14    15   ar
     4    15    16   ar
     5    16    11    1
     6    11     8    1
     7     8     9    2
     8     8    10   am
     9    10    19    1
    10    19    20    1
    11    20    21   ar
    12    20    22   ar
    13    10     7    1
    14     7     1    1
    15     1     2   ar
    16     2     3   ar
    17     3     4   ar
    18     4     5   ar
    19     5    23    1
    20    23    24    1
    21    24    25    1
    22    25    26   ar
    23    26    27   ar
    24    27    31    1
    25    31    32   ar
    26    32    33   ar
    27    33    34   ar
    28    34    35    1
    29    34    36   ar
    30    36    37   ar
    31    27    28   ar
    32    28    29   ar
    33    29    30    1
    34     5     6   ar
    35    16    17   ar
    36    17    18   ar
    37    18    13   ar
    38     6     1   ar
    39    29    25   ar
    40    37    31   ar
@<TRIPOS>MOLECULE
*****
 37 40 0 0 0
SMALL
GASTEIGER

@<TRIPOS>ATOM
      1 C         142.0560  141.5306  159.8268 C.ar    1  UNL1        0.0008
      2 C         142.3276  142.5478  158.7584 C.ar    1  UNL1       -0.0024
      3 C         141.2388  143.4798  158.3159 C.ar    1  UNL1        0.0028
      4 C         139.8783  143.3947  158.9418 C.ar    1  UNL1        0.0369
      5 C         139.6066  142.3775  160.0102 C.ar    1  UNL1        0.1389
      6 C         140.6954  141.4455  160.4528 C.ar    1  UNL1        0.0343
      7 C         143.1448  140.5986  160.2693 C.3     1  UNL1        0.1239
      8 C         142.6950  138.6238  161.8965 C.2     1  UNL1        0.4100
      9 O         142.2681  137.7685  160.7406 O.2     1  UNL1       -0.2258
     10 N         143.1333  140.0389  161.6609 N.am    1  UNL1       -0.2363
     11 O         142.6835  138.0640  163.2881 O.3     1  UNL1       -0.4101
     12 C         137.8446  138.7683  166.7650 C.3     1  UNL1        0.0310
     13 C         139.0543  138.5922  165.8958 C.ar    1  UNL1       -0.0217
     14 C         138.9931  137.6900  164.6990 C.ar    1  UNL1       -0.0011
     15 C         140.2028  137.5139  163.8298 C.ar    1  UNL1        0.0373
     16 C         141.4738  138.2401  164.1573 C.ar    1  UNL1        0.1500
     17 C         141.5351  139.1423  165.3541 C.ar    1  UNL1        0.0373
     18 C         140.3253  139.3184  166.2233 C.ar    1  UNL1       -0.0011
     19 C         143.5601  140.8941  162.8169 C.3     1  UNL1        0.1388
     20 C         144.9460  140.7628  163.3756 C.2     1  UNL1        0.0706
     21 O         145.2426  139.7149  164.4071 O.co2   1  UNL1       -0.5474
     22 O         146.0352  141.6793  162.9028 O.co2   1  UNL1       -0.5474
     23 O         138.2461  142.2924  160.6361 O.3     1  UNL1       -0.4690
     24 C         137.9081  143.1546  161.8161 C.3     1  UNL1        0.2510
     25 C         138.9704  143.5112  162.8133 C.ar    1  UNL1        0.1052
     26 N         139.3881  142.6816  163.9912 N.ar    1  UNL1       -0.2393
     27 C         140.4773  143.4176  164.7136 C.ar    1  UNL1        0.1101
     28 S         140.7328  144.7021  163.9822 S.2     1  UNL1       -0.0711
     29 C         139.8014  144.7599  162.8078 C.ar    1  UNL1        0.0261
     30 C         139.7161  145.8714  161.8041 C.3     1  UNL1        0.0396
     31 C         141.1866  142.9511  165.9502 C.ar    1  UNL1        0.0239
     32 C         142.6540  142.6438  165.9024 C.ar    1  UNL1        0.0029
     33 C         143.3633  142.1772  167.1390 C.ar    1  UNL1        0.0115
     34 C         142.6051  142.0179  168.4235 C.ar    1  UNL1        0.0577
     35 CL        143.3144  141.5514  169.6601 Cl      1  UNL1       -0.0822
     36 C         141.1377  142.3252  168.4713 C.ar    1  UNL1        0.0115
     37 C         140.4284  142.7918  167.2346 C.ar    1  UNL1        0.0029
@<TRIPOS>UNITY_ATOM_ATTR
21 1
charge -1
@<TRIPOS>BOND
     1    12    13    1
     2    13    14   ar
     3    14    15   ar
     4    15    16   ar
     5    16    11    1
     6    11     8    1
     7     8     9    2
     8     8    10   am
     9    10    19    1
    10    19    20    1
    11    20    21   ar
    12    20    22   ar
    13    10     7    1
    14     7     1    1
    15     1     2   ar
    16     2     3   ar
    17     3     4   ar
    18     4     5   ar
    19     5    23    1
    20    23    24    1
    21    24    25    1
    22    25    26   ar
    23    26    27   ar
    24    27    31    1
    25    31    32   ar
    26    32    33   ar
    27    33    34   ar
    28    34    35    1
    29    34    36   ar
    30    36    37   ar
    31    27    28   ar
    32    28    29   ar
    33    29    30    1
    34     5     6   ar
    35    16    17   ar
    36    17    18   ar
    37    18    13   ar
    38     6     1   ar
    39    29    25   ar
    40    37    31   ar
