@<TRIPOS>MOLECULE
*****
 26 28 0 0 0
SMALL
GASTEIGER

@<TRIPOS>ATOM
      1 C         142.0821  142.0418  168.9784 C.ar    1  UNL1        0.1096
      2 C         140.8919  141.2676  169.4619 C.ar    1  UNL1        0.0153
      3 C         139.9542  140.6392  168.4741 C.ar    1  UNL1        0.0709
      4 C         140.2067  140.7850  167.0028 C.ar    1  UNL1        0.0831
      5 N         141.3969  141.5592  166.5192 N.ar    1  UNL1       -0.2897
      6 C         142.3346  142.1876  167.5070 C.ar    1  UNL1        0.2655
      7 O         143.5249  142.9619  167.0234 O.2     1  UNL1       -0.2668
      8 C         145.4197  143.4057  170.6367 C.3     1  UNL1        0.1109
      9 N         144.4820  142.7773  169.6490 N.am    1  UNL1       -0.2990
     10 C         143.0198  142.6703  169.9662 C.2     1  UNL1        0.2505
     11 O         142.4954  143.1917  171.2712 O.2     1  UNL1       -0.2700
     12 H         144.8262  142.4351  168.7924 H       1  UNL1        0.1498
     13 C         138.7639  139.8649  168.9578 C.2     1  UNL1        0.2473
     14 O         138.0614  138.9147  168.0339 O.2     1  UNL1       -0.2701
     15 N         138.2761  140.0410  170.3653 N.am    1  UNL1       -0.3024
     16 H         138.7372  140.6647  170.9716 H       1  UNL1        0.1497
     17 C         137.0859  139.2668  170.8489 C.3     1  UNL1        0.0720
     18 C         136.3058  137.9870  170.9093 C.3     1  UNL1        0.0213
     19 C         135.8045  139.2055  171.6262 C.3     1  UNL1        0.0213
     20 C         141.6495  141.7050  165.0478 C.3     1  UNL1        0.1358
     21 C         141.2014  142.9430  164.3290 C.ar    1  UNL1        0.0005
     22 C         142.2041  143.9880  163.9386 C.ar    1  UNL1       -0.0024
     23 C         141.7560  145.2260  163.2198 C.ar    1  UNL1       -0.0003
     24 C         140.3052  145.4190  162.8914 C.ar    1  UNL1       -0.0000
     25 C         139.3024  144.3739  163.2819 C.ar    1  UNL1       -0.0003
     26 C         139.7505  143.1360  164.0006 C.ar    1  UNL1       -0.0024
@<TRIPOS>BOND
     1     8     9    1
     2     9    10   am
     3    10    11    2
     4    10     1    1
     5     1     2   ar
     6     2     3   ar
     7     3    13    1
     8    13    14    2
     9    13    15   am
    10    15    17    1
    11    17    18    1
    12    18    19    1
    13     3     4   ar
    14     4     5   ar
    15     5    20    1
    16    20    21    1
    17    21    22   ar
    18    22    23   ar
    19    23    24   ar
    20    24    25   ar
    21    25    26   ar
    22     5     6   ar
    23     6     7    2
    24     6     1   ar
    25    19    17    1
    26    26    21   ar
    27     9    12    1
    28    15    16    1
@<TRIPOS>MOLECULE
*****
 26 28 0 0 0
SMALL
GASTEIGER

@<TRIPOS>ATOM
      1 C         143.8978  141.9226  160.1093 C.ar    1  UNL1        0.1096
      2 C         144.1962  141.0314  161.2783 C.ar    1  UNL1        0.0153
      3 C         143.5788  141.3162  162.6154 C.ar    1  UNL1        0.0709
      4 C         142.6629  142.4921  162.7834 C.ar    1  UNL1        0.0831
      5 N         142.3645  143.3833  161.6144 N.ar    1  UNL1       -0.2897
      6 C         142.9819  143.0985  160.2773 C.ar    1  UNL1        0.2655
      7 O         142.6834  143.9898  159.1083 O.2     1  UNL1       -0.2668
      8 C         145.8630  142.4376  156.7001 C.3     1  UNL1        0.1109
      9 N         145.2456  142.7223  158.0372 N.am    1  UNL1       -0.2990
     10 C         144.5152  141.6378  158.7723 C.2     1  UNL1        0.2505
     11 O         144.4023  140.2686  158.1703 O.2     1  UNL1       -0.2700
     12 H         145.3197  143.6210  158.4322 H       1  UNL1        0.1498
     13 C         143.8772  140.4249  163.7844 C.2     1  UNL1        0.2473
     14 O         145.2298  139.7902  163.9176 O.2     1  UNL1       -0.2701
     15 N         142.8231  140.1683  164.8203 N.am    1  UNL1       -0.3024
     16 H         141.9353  140.5849  164.7329 H       1  UNL1        0.1497
     17 C         143.1215  139.2771  165.9893 C.3     1  UNL1        0.0720
     18 C         142.9791  138.9559  167.4476 C.3     1  UNL1        0.0213
     19 C         143.7807  138.0547  166.5559 C.3     1  UNL1        0.0213
     20 C         141.4485  144.5593  161.7823 C.3     1  UNL1        0.1358
     21 C         140.2309  144.4436  162.6506 C.ar    1  UNL1        0.0005
     22 C         140.2729  144.9279  164.0696 C.ar    1  UNL1       -0.0024
     23 C         139.0552  144.8122  164.9380 C.ar    1  UNL1       -0.0003
     24 C         137.7956  144.2121  164.3873 C.ar    1  UNL1       -0.0000
     25 C         137.7536  143.7278  162.9682 C.ar    1  UNL1       -0.0003
     26 C         138.9713  143.8435  162.0999 C.ar    1  UNL1       -0.0024
@<TRIPOS>BOND
     1     8     9    1
     2     9    10   am
     3    10    11    2
     4    10     1    1
     5     1     2   ar
     6     2     3   ar
     7     3    13    1
     8    13    14    2
     9    13    15   am
    10    15    17    1
    11    17    18    1
    12    18    19    1
    13     3     4   ar
    14     4     5   ar
    15     5    20    1
    16    20    21    1
    17    21    22   ar
    18    22    23   ar
    19    23    24   ar
    20    24    25   ar
    21    25    26   ar
    22     5     6   ar
    23     6     7    2
    24     6     1   ar
    25    19    17    1
    26    26    21   ar
    27     9    12    1
    28    15    16    1
@<TRIPOS>MOLECULE
*****
 26 28 0 0 0
SMALL
GASTEIGER

@<TRIPOS>ATOM
      1 C         141.9321  138.5781  160.0948 C.ar    1  UNL1        0.1096
      2 C         140.8242  138.2226  161.0414 C.ar    1  UNL1        0.0153
      3 C         140.9142  138.6210  162.4848 C.ar    1  UNL1        0.0709
      4 C         142.1120  139.3749  162.9815 C.ar    1  UNL1        0.0831
      5 N         143.2199  139.7305  162.0348 N.ar    1  UNL1       -0.2897
      6 C         143.1299  139.3321  160.5915 C.ar    1  UNL1        0.2655
      7 O         144.2379  139.6877  159.6448 O.2     1  UNL1       -0.2668
      8 C         142.9624  137.2478  156.5005 C.3     1  UNL1        0.1109
      9 N         143.0523  137.6462  157.9439 N.am    1  UNL1       -0.2990
     10 C         141.8422  138.1798  158.6515 C.2     1  UNL1        0.2505
     11 O         140.5420  138.3150  157.9157 O.2     1  UNL1       -0.2700
     12 H         143.9057  137.5574  158.4267 H       1  UNL1        0.1498
     13 C         139.8062  138.2654  163.4314 C.2     1  UNL1        0.2473
     14 O         138.6195  137.4907  162.9399 O.2     1  UNL1       -0.2701
     15 N         139.8851  138.6844  164.8695 N.am    1  UNL1       -0.3024
     16 H         140.6640  139.1928  165.1921 H       1  UNL1        0.1497
     17 C         138.7772  138.3289  165.8161 C.3     1  UNL1        0.0720
     18 C         137.8753  137.3012  166.4329 C.3     1  UNL1        0.0213
     19 C         137.7603  138.7406  166.8390 C.3     1  UNL1        0.0213
     20 C         144.4178  140.4844  162.5315 C.3     1  UNL1        0.1358
     21 C         144.2533  141.8618  163.1023 C.ar    1  UNL1        0.0005
     22 C         143.7757  142.9836  162.2286 C.ar    1  UNL1       -0.0024
     23 C         143.6112  144.3610  162.7994 C.ar    1  UNL1       -0.0003
     24 C         143.9244  144.6166  164.2438 C.ar    1  UNL1       -0.0000
     25 C         144.4021  143.4947  165.1176 C.ar    1  UNL1       -0.0003
     26 C         144.5666  142.1174  164.5468 C.ar    1  UNL1       -0.0024
@<TRIPOS>BOND
     1     8     9    1
     2     9    10   am
     3    10    11    2
     4    10     1    1
     5     1     2   ar
     6     2     3   ar
     7     3    13    1
     8    13    14    2
     9    13    15   am
    10    15    17    1
    11    17    18    1
    12    18    19    1
    13     3     4   ar
    14     4     5   ar
    15     5    20    1
    16    20    21    1
    17    21    22   ar
    18    22    23   ar
    19    23    24   ar
    20    24    25   ar
    21    25    26   ar
    22     5     6   ar
    23     6     7    2
    24     6     1   ar
    25    19    17    1
    26    26    21   ar
    27     9    12    1
    28    15    16    1
@<TRIPOS>MOLECULE
*****
 26 28 0 0 0
SMALL
GASTEIGER

@<TRIPOS>ATOM
      1 C         138.9638  139.6102  164.6669 C.ar    1  UNL1        0.1096
      2 C         138.0699  139.0775  165.7472 C.ar    1  UNL1        0.0153
      3 C         138.4453  139.2580  167.1882 C.ar    1  UNL1        0.0709
      4 C         139.7146  139.9712  167.5490 C.ar    1  UNL1        0.0831
      5 N         140.6085  140.5039  166.4687 N.ar    1  UNL1       -0.2897
      6 C         140.2331  140.3234  165.0277 C.ar    1  UNL1        0.2655
      7 O         141.1271  140.8562  163.9474 O.2     1  UNL1       -0.2668
      8 C         138.8374  138.1487  160.9794 C.3     1  UNL1        0.1109
      9 N         139.2127  138.3291  162.4204 N.am    1  UNL1       -0.2990
     10 C         138.5884  139.4298  163.2259 C.2     1  UNL1        0.2505
     11 O         137.5888  140.3499  162.5904 O.2     1  UNL1       -0.2700
     12 H         139.8689  137.7252  162.8376 H       1  UNL1        0.1498
     13 C         137.5512  138.7253  168.2685 C.2     1  UNL1        0.2473
     14 O         136.5747  137.6290  167.9612 O.2     1  UNL1       -0.2701
     15 N         137.6338  139.2889  169.6562 N.am    1  UNL1       -0.3024
     16 H         138.2747  140.0085  169.8579 H       1  UNL1        0.1497
     17 C         136.7398  138.7562  170.7364 C.3     1  UNL1        0.0720
     18 C         135.5630  138.9273  171.6507 C.3     1  UNL1        0.0213
     19 C         136.3682  137.6625  171.6933 C.3     1  UNL1        0.0213
     20 C         141.8779  141.2171  166.8294 C.3     1  UNL1        0.1358
     21 C         141.9530  142.0217  168.0931 C.ar    1  UNL1        0.0005
     22 C         140.7913  142.8744  168.5094 C.ar    1  UNL1       -0.0024
     23 C         140.8664  143.6790  169.7732 C.ar    1  UNL1       -0.0003
     24 C         142.1031  143.6309  170.6205 C.ar    1  UNL1       -0.0000
     25 C         143.2649  142.7782  170.2042 C.ar    1  UNL1       -0.0003
     26 C         143.1898  141.9736  168.9405 C.ar    1  UNL1       -0.0024
@<TRIPOS>BOND
     1     8     9    1
     2     9    10   am
     3    10    11    2
     4    10     1    1
     5     1     2   ar
     6     2     3   ar
     7     3    13    1
     8    13    14    2
     9    13    15   am
    10    15    17    1
    11    17    18    1
    12    18    19    1
    13     3     4   ar
    14     4     5   ar
    15     5    20    1
    16    20    21    1
    17    21    22   ar
    18    22    23   ar
    19    23    24   ar
    20    24    25   ar
    21    25    26   ar
    22     5     6   ar
    23     6     7    2
    24     6     1   ar
    25    19    17    1
    26    26    21   ar
    27     9    12    1
    28    15    16    1
@<TRIPOS>MOLECULE
*****
 26 28 0 0 0
SMALL
GASTEIGER

@<TRIPOS>ATOM
      1 C         140.5182  140.6803  169.6839 C.ar    1  UNL1        0.1096
      2 C         141.4939  141.5791  170.3840 C.ar    1  UNL1        0.0153
      3 C         142.5389  142.3108  169.5951 C.ar    1  UNL1        0.0709
      4 C         142.6083  142.1438  168.1061 C.ar    1  UNL1        0.0831
      5 N         141.6327  141.2450  167.4060 N.ar    1  UNL1       -0.2897
      6 C         140.5876  140.5133  168.1949 C.ar    1  UNL1        0.2655
      7 O         139.6119  139.6145  167.4947 O.2     1  UNL1       -0.2668
      8 C         136.9913  139.2703  170.8341 C.3     1  UNL1        0.1109
      9 N         138.0364  140.0021  170.0452 N.am    1  UNL1       -0.2990
     10 C         139.4731  139.9486  170.4728 C.2     1  UNL1        0.2505
     11 O         139.8647  139.1634  171.6894 O.2     1  UNL1       -0.2700
     12 H         137.7793  140.5174  169.2467 H       1  UNL1        0.1498
     13 C         143.5147  143.2096  170.2954 C.2     1  UNL1        0.2473
     14 O         143.0158  144.3222  171.1690 O.2     1  UNL1       -0.2701
     15 N         144.9892  142.9958  170.1218 N.am    1  UNL1       -0.3024
     16 H         145.3165  142.2656  169.5483 H       1  UNL1        0.1497
     17 C         145.9649  143.8946  170.8219 C.3     1  UNL1        0.0720
     18 C         146.3594  144.6950  172.0276 C.3     1  UNL1        0.0213
     19 C         147.2602  144.6508  170.8291 C.3     1  UNL1        0.0213
     20 C         141.7020  141.0780  165.9169 C.3     1  UNL1        0.1358
     21 C         143.0263  141.1448  165.2156 C.ar    1  UNL1        0.0005
     22 C         143.8102  139.8894  164.9721 C.ar    1  UNL1       -0.0024
     23 C         145.1345  139.9562  164.2708 C.ar    1  UNL1       -0.0003
     24 C         145.6749  141.2785  163.8130 C.ar    1  UNL1       -0.0000
     25 C         144.8909  142.5340  164.0565 C.ar    1  UNL1       -0.0003
     26 C         143.5667  142.4672  164.7578 C.ar    1  UNL1       -0.0024
@<TRIPOS>BOND
     1     8     9    1
     2     9    10   am
     3    10    11    2
     4    10     1    1
     5     1     2   ar
     6     2     3   ar
     7     3    13    1
     8    13    14    2
     9    13    15   am
    10    15    17    1
    11    17    18    1
    12    18    19    1
    13     3     4   ar
    14     4     5   ar
    15     5    20    1
    16    20    21    1
    17    21    22   ar
    18    22    23   ar
    19    23    24   ar
    20    24    25   ar
    21    25    26   ar
    22     5     6   ar
    23     6     7    2
    24     6     1   ar
    25    19    17    1
    26    26    21   ar
    27     9    12    1
    28    15    16    1
@<TRIPOS>MOLECULE
*****
 26 28 0 0 0
SMALL
GASTEIGER

@<TRIPOS>ATOM
      1 C         142.3151  143.8110  160.8160 C.ar    1  UNL1        0.1096
      2 C         142.9888  143.3330  159.5640 C.ar    1  UNL1        0.0153
      3 C         144.2832  142.5799  159.6495 C.ar    1  UNL1        0.0709
      4 C         144.9038  142.3047  160.9871 C.ar    1  UNL1        0.0831
      5 N         144.2301  142.7827  162.2391 N.ar    1  UNL1       -0.2897
      6 C         142.9357  143.5359  162.1535 C.ar    1  UNL1        0.2655
      7 O         142.2620  144.0139  163.4056 O.2     1  UNL1       -0.2668
      8 C         139.4793  146.4892  161.5481 C.3     1  UNL1        0.1109
      9 N         140.7737  145.7360  161.6337 N.am    1  UNL1       -0.2990
     10 C         141.0207  144.5642  160.7305 C.2     1  UNL1        0.2505
     11 O         139.9733  144.1455  159.7418 O.2     1  UNL1       -0.2700
     12 H         141.4612  146.0108  162.2826 H       1  UNL1        0.1498
     13 C         144.9569  142.1018  158.3974 C.2     1  UNL1        0.2473
     14 O         144.4712  140.8592  157.7120 O.2     1  UNL1       -0.2701
     15 N         146.1163  142.8666  157.8308 N.am    1  UNL1       -0.3024
     16 H         146.4350  143.6822  158.2807 H       1  UNL1        0.1497
     17 C         146.7900  142.3886  156.5788 C.3     1  UNL1        0.0720
     18 C         146.7034  141.8621  155.1769 C.3     1  UNL1        0.0213
     19 C         148.0435  142.0872  155.8121 C.3     1  UNL1        0.0213
     20 C         144.8508  142.5076  163.5767 C.3     1  UNL1        0.1358
     21 C         144.3588  141.3617  164.4103 C.ar    1  UNL1        0.0005
     22 C         143.3424  141.5999  165.4874 C.ar    1  UNL1       -0.0024
     23 C         142.8504  140.4540  166.3210 C.ar    1  UNL1       -0.0003
     24 C         143.3748  139.0700  166.0775 C.ar    1  UNL1       -0.0000
     25 C         144.3913  138.8317  165.0004 C.ar    1  UNL1       -0.0003
     26 C         144.8833  139.9776  164.1668 C.ar    1  UNL1       -0.0024
@<TRIPOS>BOND
     1     8     9    1
     2     9    10   am
     3    10    11    2
     4    10     1    1
     5     1     2   ar
     6     2     3   ar
     7     3    13    1
     8    13    14    2
     9    13    15   am
    10    15    17    1
    11    17    18    1
    12    18    19    1
    13     3     4   ar
    14     4     5   ar
    15     5    20    1
    16    20    21    1
    17    21    22   ar
    18    22    23   ar
    19    23    24   ar
    20    24    25   ar
    21    25    26   ar
    22     5     6   ar
    23     6     7    2
    24     6     1   ar
    25    19    17    1
    26    26    21   ar
    27     9    12    1
    28    15    16    1
@<TRIPOS>MOLECULE
*****
 26 28 0 0 0
SMALL
GASTEIGER

@<TRIPOS>ATOM
      1 C         141.9741  143.9744  158.3711 C.ar    1  UNL1        0.1096
      2 C         140.9365  144.3688  159.3800 C.ar    1  UNL1        0.0153
      3 C         141.1854  144.1385  160.8411 C.ar    1  UNL1        0.0709
      4 C         142.4719  143.5138  161.2935 C.ar    1  UNL1        0.0831
      5 N         143.5095  143.1195  160.2847 N.ar    1  UNL1       -0.2897
      6 C         143.2606  143.3498  158.8235 C.ar    1  UNL1        0.2655
      7 O         144.2984  142.9554  157.8147 O.2     1  UNL1       -0.2668
      8 C         142.5363  145.0701  154.5984 C.3     1  UNL1        0.1109
      9 N         142.7852  144.8398  156.0596 N.am    1  UNL1       -0.2990
     10 C         141.7253  144.2047  156.9100 C.2     1  UNL1        0.2505
     11 O         140.4165  143.7999  156.2991 O.2     1  UNL1       -0.2700
     12 H         143.6442  145.1056  156.4605 H       1  UNL1        0.1498
     13 C         140.1477  144.5329  161.8500 C.2     1  UNL1        0.2473
     14 O         139.1378  145.5896  161.5132 O.2     1  UNL1       -0.2701
     15 N         140.1199  143.8705  163.1955 N.am    1  UNL1       -0.3024
     16 H         140.7828  143.1769  163.4165 H       1  UNL1        0.1497
     17 C         139.0823  144.2649  164.2043 C.3     1  UNL1        0.0720
     18 C         137.6592  144.2490  164.6783 C.3     1  UNL1        0.0213
     19 C         138.7080  144.9637  165.4777 C.3     1  UNL1        0.0213
     20 C         144.7961  142.4948  160.7370 C.3     1  UNL1        0.1358
     21 C         144.7833  141.4392  161.8027 C.ar    1  UNL1        0.0005
     22 C         145.4492  141.6971  163.1218 C.ar    1  UNL1       -0.0024
     23 C         145.4364  140.6416  164.1874 C.ar    1  UNL1       -0.0003
     24 C         144.7578  139.3281  163.9340 C.ar    1  UNL1       -0.0000
     25 C         144.0919  139.0702  162.6149 C.ar    1  UNL1       -0.0003
     26 C         144.1046  140.1257  161.5492 C.ar    1  UNL1       -0.0024
@<TRIPOS>BOND
     1     8     9    1
     2     9    10   am
     3    10    11    2
     4    10     1    1
     5     1     2   ar
     6     2     3   ar
     7     3    13    1
     8    13    14    2
     9    13    15   am
    10    15    17    1
    11    17    18    1
    12    18    19    1
    13     3     4   ar
    14     4     5   ar
    15     5    20    1
    16    20    21    1
    17    21    22   ar
    18    22    23   ar
    19    23    24   ar
    20    24    25   ar
    21    25    26   ar
    22     5     6   ar
    23     6     7    2
    24     6     1   ar
    25    19    17    1
    26    26    21   ar
    27     9    12    1
    28    15    16    1
@<TRIPOS>MOLECULE
*****
 26 28 0 0 0
SMALL
GASTEIGER

@<TRIPOS>ATOM
      1 C         138.2639  141.5308  158.9669 C.ar    1  UNL1        0.1096
      2 C         138.0640  140.5394  160.0747 C.ar    1  UNL1        0.0153
      3 C         138.5882  140.8343  161.4488 C.ar    1  UNL1        0.0709
      4 C         139.3123  142.1206  161.7152 C.ar    1  UNL1        0.0831
      5 N         139.5123  143.1120  160.6075 N.ar    1  UNL1       -0.2897
      6 C         138.9881  142.8171  159.2334 C.ar    1  UNL1        0.2655
      7 O         139.1881  143.8086  158.1256 O.2     1  UNL1       -0.2668
      8 C         136.3814  141.9594  155.4996 C.3     1  UNL1        0.1109
      9 N         136.9056  142.2543  156.8738 N.am    1  UNL1       -0.2990
     10 C         137.7398  141.2359  157.5928 C.2     1  UNL1        0.2505
     11 O         138.0497  139.9226  156.9377 O.2     1  UNL1       -0.2700
     12 H         136.7022  143.1162  157.3037 H       1  UNL1        0.1498
     13 C         138.3882  139.8428  162.5566 C.2     1  UNL1        0.2473
     14 O         137.8942  138.4610  162.2462 O.2     1  UNL1       -0.2701
     15 N         138.6822  140.2333  163.9747 N.am    1  UNL1       -0.3024
     16 H         139.0064  141.1403  164.1784 H       1  UNL1        0.1497
     17 C         138.4822  139.2419  165.0824 C.3     1  UNL1        0.0720
     18 C         138.0198  138.9242  166.4736 C.3     1  UNL1        0.0213
     19 C         138.5982  137.8426  165.6101 C.3     1  UNL1        0.0213
     20 C         140.2365  144.3984  160.8739 C.3     1  UNL1        0.1358
     21 C         141.4757  144.4003  161.7191 C.ar    1  UNL1        0.0005
     22 C         141.4983  145.1549  163.0152 C.ar    1  UNL1       -0.0024
     23 C         142.7375  145.1568  163.8604 C.ar    1  UNL1       -0.0003
     24 C         143.9541  144.4041  163.4095 C.ar    1  UNL1       -0.0000
     25 C         143.9315  143.6494  162.1133 C.ar    1  UNL1       -0.0003
     26 C         142.6923  143.6475  161.2681 C.ar    1  UNL1       -0.0024
@<TRIPOS>BOND
     1     8     9    1
     2     9    10   am
     3    10    11    2
     4    10     1    1
     5     1     2   ar
     6     2     3   ar
     7     3    13    1
     8    13    14    2
     9    13    15   am
    10    15    17    1
    11    17    18    1
    12    18    19    1
    13     3     4   ar
    14     4     5   ar
    15     5    20    1
    16    20    21    1
    17    21    22   ar
    18    22    23   ar
    19    23    24   ar
    20    24    25   ar
    21    25    26   ar
    22     5     6   ar
    23     6     7    2
    24     6     1   ar
    25    19    17    1
    26    26    21   ar
    27     9    12    1
    28    15    16    1
@<TRIPOS>MOLECULE
*****
 26 28 0 0 0
SMALL
GASTEIGER

@<TRIPOS>ATOM
      1 C         142.0647  144.6126  156.3052 C.ar    1  UNL1        0.1096
      2 C         142.0231  144.6273  157.8046 C.ar    1  UNL1        0.0153
      3 C         140.9424  145.3849  158.5174 C.ar    1  UNL1        0.0709
      4 C         139.9033  146.1276  157.7310 C.ar    1  UNL1        0.0831
      5 N         139.9449  146.1129  156.2317 N.ar    1  UNL1       -0.2897
      6 C         141.0256  145.3553  155.5188 C.ar    1  UNL1        0.2655
      7 O         141.0672  145.3406  154.0194 O.2     1  UNL1       -0.2668
      8 C         145.0527  143.7794  153.8299 C.3     1  UNL1        0.1109
      9 N         143.9720  144.5369  154.5428 N.am    1  UNL1       -0.2990
     10 C         143.1454  143.8550  155.5924 C.2     1  UNL1        0.2505
     11 O         143.3995  142.4156  155.9291 O.2     1  UNL1       -0.2700
     12 H         143.8053  145.4817  154.3218 H       1  UNL1        0.1498
     13 C         140.9008  145.3996  160.0168 C.2     1  UNL1        0.2473
     14 O         139.6712  145.8812  160.7283 O.2     1  UNL1       -0.2701
     15 N         142.0887  144.9327  160.8047 N.am    1  UNL1       -0.3024
     16 H         142.8957  144.6166  160.3377 H       1  UNL1        0.1497
     17 C         142.0472  144.9474  162.3040 C.3     1  UNL1        0.0720
     18 C         142.7600  144.9980  163.6229 C.3     1  UNL1        0.0213
     19 C         141.2625  144.9223  163.5821 C.3     1  UNL1        0.0213
     20 C         138.9058  146.8557  155.4452 C.3     1  UNL1        0.1358
     21 C         139.0775  148.3205  155.1714 C.ar    1  UNL1        0.0005
     22 C         139.8581  148.7730  153.9731 C.ar    1  UNL1       -0.0024
     23 C         140.0297  150.2378  153.6994 C.ar    1  UNL1       -0.0003
     24 C         139.4208  151.2500  154.6238 C.ar    1  UNL1       -0.0000
     25 C         138.6402  150.7975  155.8221 C.ar    1  UNL1       -0.0003
     26 C         138.4685  149.3327  156.0959 C.ar    1  UNL1       -0.0024
@<TRIPOS>BOND
     1     8     9    1
     2     9    10   am
     3    10    11    2
     4    10     1    1
     5     1     2   ar
     6     2     3   ar
     7     3    13    1
     8    13    14    2
     9    13    15   am
    10    15    17    1
    11    17    18    1
    12    18    19    1
    13     3     4   ar
    14     4     5   ar
    15     5    20    1
    16    20    21    1
    17    21    22   ar
    18    22    23   ar
    19    23    24   ar
    20    24    25   ar
    21    25    26   ar
    22     5     6   ar
    23     6     7    2
    24     6     1   ar
    25    19    17    1
    26    26    21   ar
    27     9    12    1
    28    15    16    1
