@<TRIPOS>MOLECULE
*****
 25 29 0 0 0
SMALL
GASTEIGER

@<TRIPOS>ATOM
      1 N         138.1022  138.7489  167.3971 N.pl3   1  UNL1       -0.2535
      2 H         137.4381  138.1083  167.7403 H       1  UNL1        0.1579
      3 C         138.9153  139.5707  168.3528 C.2     1  UNL1        0.2847
      4 N         138.5511  139.8892  169.7726 N.2     1  UNL1       -0.2204
      5 C         139.6462  140.7336  170.3539 C.3     1  UNL1        0.1712
      6 C         140.6872  140.9370  169.2933 C.3     1  UNL1        0.1729
      7 C         141.6376  141.0533  168.1386 C.3     1  UNL1        0.1147
      8 N         142.9074  141.8377  168.2885 N.3     1  UNL1       -0.2697
      9 C         143.2268  142.5057  169.5929 C.3     1  UNL1        0.0723
     10 C         142.2764  142.3894  170.7476 C.3     1  UNL1        0.0209
     11 C         141.0067  141.6050  170.5978 C.3     1  UNL1        0.0429
     12 C         141.2798  141.3030  169.3632 C.3     1  UNL1        0.0209
     13 C         141.7866  141.3651  168.7474 C.3     1  UNL1        0.0723
     14 O         140.2355  140.2183  168.0566 O.2     1  UNL1       -0.4536
     15 C         138.3441  140.4046  163.7984 C.ar    1  UNL1        0.1535
     16 C         138.1453  140.2503  165.2772 C.ar    1  UNL1        0.0720
     17 C         138.3009  138.9032  165.9183 C.ar    1  UNL1        0.1402
     18 N         138.6553  137.7104  165.0807 N.ar    1  UNL1       -0.2087
     19 C         138.8541  137.8647  163.6020 C.ar    1  UNL1        0.2014
     20 N         138.6984  139.2118  162.9609 N.ar    1  UNL1       -0.2061
     21 C         137.8000  144.1265  162.8408 C.ar    1  UNL1        0.1197
     22 C         137.8559  143.0318  163.8649 C.ar    1  UNL1        0.1035
     23 N         138.1884  141.7517  163.1573 N.ar    1  UNL1       -0.2711
     24 C         138.3380  142.0552  161.6959 C.ar    1  UNL1        0.1840
     25 N         138.0979  143.5229  161.5004 N.ar    1  UNL1       -0.2220
@<TRIPOS>BOND
     1    21    22   ar
     2    22    23   ar
     3    23    15    1
     4    15    16   ar
     5    16    17   ar
     6    17     1    1
     7     1     3    1
     8     3     4    2
     9     4     5    1
    10     6     5    1
    11     6     7    1
    12     7     8    1
    13     8     9    1
    14     9    10    1
    15    10    11    1
    16    11    12    1
    17    12    13    1
    18     6    14    1
    19    17    18   ar
    20    18    19   ar
    21    19    20   ar
    22    23    24   ar
    23    24    25   ar
    24    25    21   ar
    25    20    15   ar
    26    14     3    1
    27    11     6    1
    28    13     8    1
    29     1     2    1
@<TRIPOS>MOLECULE
*****
 25 29 0 0 0
SMALL
GASTEIGER

@<TRIPOS>ATOM
      1 N         138.4888  139.1623  165.5766 N.pl3   1  UNL1       -0.2535
      2 H         137.5956  138.8274  165.8200 H       1  UNL1        0.1579
      3 C         139.1688  140.1821  166.4413 C.2     1  UNL1        0.2847
      4 N         139.8275  141.4430  165.9656 N.2     1  UNL1       -0.2204
      5 C         140.3752  142.1602  167.1638 C.3     1  UNL1        0.1712
      6 C         140.0551  141.3426  168.3799 C.3     1  UNL1        0.1729
      7 C         139.6656  140.4229  169.4990 C.3     1  UNL1        0.1147
      8 N         140.0275  140.7673  170.9134 N.3     1  UNL1       -0.2697
      9 C         140.7789  142.0315  171.2086 C.3     1  UNL1        0.0723
     10 C         141.1684  142.9512  170.0896 C.3     1  UNL1        0.0209
     11 C         140.8064  142.6068  168.6752 C.3     1  UNL1        0.0429
     12 C         140.2240  141.5033  169.0400 C.3     1  UNL1        0.0209
     13 C         140.0162  141.0128  169.6368 C.3     1  UNL1        0.0723
     14 O         139.3094  140.1200  167.9334 O.2     1  UNL1       -0.4536
     15 C         139.4332  138.6481  161.7564 C.ar    1  UNL1        0.1535
     16 C         138.7521  139.1578  162.9920 C.ar    1  UNL1        0.0720
     17 C         139.1698  138.6526  164.3411 C.ar    1  UNL1        0.1402
     18 N         140.2686  137.6378  164.4548 N.ar    1  UNL1       -0.2087
     19 C         140.9496  137.1281  163.2193 C.ar    1  UNL1        0.2014
     20 N         140.5318  137.6333  161.8702 N.ar    1  UNL1       -0.2061
     21 C         139.0019  139.6529  158.0322 C.ar    1  UNL1        0.1197
     22 C         139.7881  139.0007  159.1306 C.ar    1  UNL1        0.1035
     23 N         139.0155  139.1533  160.4072 N.ar    1  UNL1       -0.2711
     24 C         137.7517  139.8997  160.0978 C.ar    1  UNL1        0.1840
     25 N         137.7434  140.2084  158.6300 N.ar    1  UNL1       -0.2220
@<TRIPOS>BOND
     1    21    22   ar
     2    22    23   ar
     3    23    15    1
     4    15    16   ar
     5    16    17   ar
     6    17     1    1
     7     1     3    1
     8     3     4    2
     9     4     5    1
    10     6     5    1
    11     6     7    1
    12     7     8    1
    13     8     9    1
    14     9    10    1
    15    10    11    1
    16    11    12    1
    17    12    13    1
    18     6    14    1
    19    17    18   ar
    20    18    19   ar
    21    19    20   ar
    22    23    24   ar
    23    24    25   ar
    24    25    21   ar
    25    20    15   ar
    26    14     3    1
    27    11     6    1
    28    13     8    1
    29     1     2    1
@<TRIPOS>MOLECULE
*****
 25 29 0 0 0
SMALL
GASTEIGER

@<TRIPOS>ATOM
      1 N         137.9685  139.8917  165.2959 N.pl3   1  UNL1       -0.2535
      2 H         137.0903  139.5833  165.6168 H       1  UNL1        0.1579
      3 C         139.1415  139.9182  166.2305 C.2     1  UNL1        0.2847
      4 N         140.5736  139.6776  165.8550 N.2     1  UNL1       -0.2204
      5 C         141.4055  139.8007  167.0971 C.3     1  UNL1        0.1712
      6 C         140.4874  140.1173  168.2404 C.3     1  UNL1        0.1729
      7 C         139.4518  140.4294  169.2796 C.3     1  UNL1        0.1147
      8 N         139.8611  140.6370  170.7077 N.3     1  UNL1       -0.2697
      9 C         141.3060  140.5324  171.0965 C.3     1  UNL1        0.0723
     10 C         142.3416  140.2203  170.0573 C.3     1  UNL1        0.0209
     11 C         141.9323  140.0128  168.6292 C.3     1  UNL1        0.0429
     12 C         140.6784  140.2142  168.9068 C.3     1  UNL1        0.0209
     13 C         140.1261  140.3806  169.4611 C.3     1  UNL1        0.0723
     14 O         139.0882  140.1899  167.7047 O.2     1  UNL1       -0.4536
     15 C         138.7272  142.1836  162.1461 C.ar    1  UNL1        0.1535
     16 C         138.5621  141.7402  163.5696 C.ar    1  UNL1        0.0720
     17 C         138.1336  140.3350  163.8725 C.ar    1  UNL1        0.1402
     18 N         137.8701  139.3732  162.7520 N.ar    1  UNL1       -0.2087
     19 C         138.0351  139.8166  161.3286 C.ar    1  UNL1        0.2014
     20 N         138.4637  141.2218  161.0257 N.ar    1  UNL1       -0.2061
     21 C         139.6082  145.9629  162.0660 C.ar    1  UNL1        0.1197
     22 C         139.0726  144.7573  162.7800 C.ar    1  UNL1        0.1035
     23 N         139.1557  143.5888  161.8432 N.ar    1  UNL1       -0.2711
     24 C         139.7427  144.0722  160.5502 C.ar    1  UNL1        0.1840
     25 N         140.0223  145.5394  160.6880 N.ar    1  UNL1       -0.2220
@<TRIPOS>BOND
     1    21    22   ar
     2    22    23   ar
     3    23    15    1
     4    15    16   ar
     5    16    17   ar
     6    17     1    1
     7     1     3    1
     8     3     4    2
     9     4     5    1
    10     6     5    1
    11     6     7    1
    12     7     8    1
    13     8     9    1
    14     9    10    1
    15    10    11    1
    16    11    12    1
    17    12    13    1
    18     6    14    1
    19    17    18   ar
    20    18    19   ar
    21    19    20   ar
    22    23    24   ar
    23    24    25   ar
    24    25    21   ar
    25    20    15   ar
    26    14     3    1
    27    11     6    1
    28    13     8    1
    29     1     2    1
@<TRIPOS>MOLECULE
*****
 25 29 0 0 0
SMALL
GASTEIGER

@<TRIPOS>ATOM
      1 N         140.4083  139.1523  164.4293 N.pl3   1  UNL1       -0.2535
      2 H         140.3319  138.4182  163.7778 H       1  UNL1        0.1579
      3 C         141.3116  140.3157  164.1456 C.2     1  UNL1        0.2847
      4 N         142.7592  140.2347  163.7610 N.2     1  UNL1       -0.2204
      5 C         143.2682  141.6334  163.5745 C.3     1  UNL1        0.1712
      6 C         142.1352  142.5788  163.8438 C.3     1  UNL1        0.1729
      7 C         140.9140  143.3974  164.1413 C.3     1  UNL1        0.1147
      8 N         140.9789  144.8943  164.0701 N.3     1  UNL1       -0.2697
      9 C         142.2649  145.5726  163.7015 C.3     1  UNL1        0.0723
     10 C         143.4861  144.7540  163.4040 C.3     1  UNL1        0.0209
     11 C         143.4212  143.2571  163.4751 C.3     1  UNL1        0.0429
     12 C         142.1655  143.2773  163.8106 C.3     1  UNL1        0.0209
     13 C         141.5142  143.7139  163.9693 C.3     1  UNL1        0.0723
     14 O         140.9260  141.7644  164.1968 O.2     1  UNL1       -0.4536
     15 C         139.2997  139.8400  168.1774 C.ar    1  UNL1        0.1535
     16 C         140.0867  139.8848  166.9011 C.ar    1  UNL1        0.0720
     17 C         139.6214  139.1075  165.7055 C.ar    1  UNL1        0.1402
     18 N         138.3693  138.2855  165.7862 N.ar    1  UNL1       -0.2087
     19 C         137.5825  138.2407  167.0625 C.ar    1  UNL1        0.2014
     20 N         138.0477  139.0180  168.2580 N.ar    1  UNL1       -0.2061
     21 C         140.5152  142.4352  170.7951 C.ar    1  UNL1        0.1197
     22 C         140.0940  142.0805  169.3999 C.ar    1  UNL1        0.1035
     23 N         139.7650  140.6172  169.3730 N.ar    1  UNL1       -0.2711
     24 C         139.9829  140.0677  170.7516 C.ar    1  UNL1        0.1840
     25 N         140.4466  141.1913  171.6305 N.ar    1  UNL1       -0.2220
@<TRIPOS>BOND
     1    21    22   ar
     2    22    23   ar
     3    23    15    1
     4    15    16   ar
     5    16    17   ar
     6    17     1    1
     7     1     3    1
     8     3     4    2
     9     4     5    1
    10     6     5    1
    11     6     7    1
    12     7     8    1
    13     8     9    1
    14     9    10    1
    15    10    11    1
    16    11    12    1
    17    12    13    1
    18     6    14    1
    19    17    18   ar
    20    18    19   ar
    21    19    20   ar
    22    23    24   ar
    23    24    25   ar
    24    25    21   ar
    25    20    15   ar
    26    14     3    1
    27    11     6    1
    28    13     8    1
    29     1     2    1
@<TRIPOS>MOLECULE
*****
 25 29 0 0 0
SMALL
GASTEIGER

@<TRIPOS>ATOM
      1 N         137.9881  139.7839  165.3844 N.pl3   1  UNL1       -0.2535
      2 H         137.2202  139.2027  165.5888 H       1  UNL1        0.1579
      3 C         139.1549  139.8436  166.3251 C.2     1  UNL1        0.2847
      4 N         140.5921  139.6127  165.9630 N.2     1  UNL1       -0.2204
      5 C         141.4148  139.7711  167.2073 C.3     1  UNL1        0.1712
      6 C         140.4860  140.1000  168.3384 C.3     1  UNL1        0.1729
      7 C         139.4404  140.4207  169.3649 C.3     1  UNL1        0.1147
      8 N         139.8385  140.6623  170.7908 N.3     1  UNL1       -0.2697
      9 C         141.2822  140.5832  171.1901 C.3     1  UNL1        0.0723
     10 C         142.3277  140.2624  170.1636 C.3     1  UNL1        0.0209
     11 C         141.9297  140.0208  168.7377 C.3     1  UNL1        0.0429
     12 C         140.6718  140.2127  169.0038 C.3     1  UNL1        0.0209
     13 C         140.1141  140.3838  169.5512 C.3     1  UNL1        0.0723
     14 O         139.0894  140.1448  167.7931 O.2     1  UNL1       -0.4536
     15 C         138.3067  140.7953  161.5600 C.ar    1  UNL1        0.1535
     16 C         138.3036  139.9693  162.8123 C.ar    1  UNL1        0.0720
     17 C         137.9912  140.6097  164.1322 C.ar    1  UNL1        0.1402
     18 N         137.6820  142.0760  164.2000 N.ar    1  UNL1       -0.2087
     19 C         137.6851  142.9018  162.9479 C.ar    1  UNL1        0.2014
     20 N         137.9975  142.2614  161.6279 N.ar    1  UNL1       -0.2061
     21 C         139.6219  138.7440  158.5388 C.ar    1  UNL1        0.1197
     22 C         139.6475  139.0900  159.9981 C.ar    1  UNL1        0.1035
     23 N         138.6191  140.1549  160.2401 N.ar    1  UNL1       -0.2711
     24 C         137.9580  140.4669  158.9303 C.ar    1  UNL1        0.1840
     25 N         138.5778  139.5949  157.8789 N.ar    1  UNL1       -0.2220
@<TRIPOS>BOND
     1    21    22   ar
     2    22    23   ar
     3    23    15    1
     4    15    16   ar
     5    16    17   ar
     6    17     1    1
     7     1     3    1
     8     3     4    2
     9     4     5    1
    10     6     5    1
    11     6     7    1
    12     7     8    1
    13     8     9    1
    14     9    10    1
    15    10    11    1
    16    11    12    1
    17    12    13    1
    18     6    14    1
    19    17    18   ar
    20    18    19   ar
    21    19    20   ar
    22    23    24   ar
    23    24    25   ar
    24    25    21   ar
    25    20    15   ar
    26    14     3    1
    27    11     6    1
    28    13     8    1
    29     1     2    1
@<TRIPOS>MOLECULE
*****
 25 29 0 0 0
SMALL
GASTEIGER

@<TRIPOS>ATOM
      1 N         143.7572  141.1252  165.1973 N.pl3   1  UNL1       -0.2535
      2 H         144.5675  140.5663  165.1794 H       1  UNL1        0.1579
      3 C         142.7216  140.9108  166.2610 C.2     1  UNL1        0.2847
      4 N         141.9523  139.6455  166.5004 N.2     1  UNL1       -0.2204
      5 C         141.0287  139.8769  167.6594 C.3     1  UNL1        0.1712
      6 C         141.2270  141.2851  168.1364 C.3     1  UNL1        0.1729
      7 C         141.5326  142.7081  168.4995 C.3     1  UNL1        0.1147
      8 N         140.8114  143.3624  169.6404 N.3     1  UNL1       -0.2697
      9 C         139.7846  142.5939  170.4181 C.3     1  UNL1        0.0723
     10 C         139.4790  141.1709  170.0550 C.3     1  UNL1        0.0209
     11 C         140.2003  140.5166  168.9141 C.3     1  UNL1        0.0429
     12 C         140.8905  141.5905  168.6688 C.3     1  UNL1        0.0209
     13 C         141.0534  142.3494  168.8624 C.3     1  UNL1        0.0723
     14 O         142.2733  141.9241  167.2721 O.2     1  UNL1       -0.4536
     15 C         141.9912  143.8227  162.8832 C.ar    1  UNL1        0.1535
     16 C         142.1901  142.7567  163.9198 C.ar    1  UNL1        0.0720
     17 C         143.5583  142.1910  164.1608 C.ar    1  UNL1        0.1402
     18 N         144.7275  142.6912  163.3653 N.ar    1  UNL1       -0.2087
     19 C         144.5285  143.7571  162.3288 C.ar    1  UNL1        0.2014
     20 N         143.1603  144.3228  162.0878 N.ar    1  UNL1       -0.2061
     21 C         138.2208  144.7278  162.7099 C.ar    1  UNL1        0.1197
     22 C         139.3385  143.8616  163.2102 C.ar    1  UNL1        0.1035
     23 N         140.6230  144.3883  162.6422 N.ar    1  UNL1       -0.2711
     24 C         140.2991  145.5801  161.7908 C.ar    1  UNL1        0.1840
     25 N         138.8145  145.7898  161.8327 N.ar    1  UNL1       -0.2220
@<TRIPOS>BOND
     1    21    22   ar
     2    22    23   ar
     3    23    15    1
     4    15    16   ar
     5    16    17   ar
     6    17     1    1
     7     1     3    1
     8     3     4    2
     9     4     5    1
    10     6     5    1
    11     6     7    1
    12     7     8    1
    13     8     9    1
    14     9    10    1
    15    10    11    1
    16    11    12    1
    17    12    13    1
    18     6    14    1
    19    17    18   ar
    20    18    19   ar
    21    19    20   ar
    22    23    24   ar
    23    24    25   ar
    24    25    21   ar
    25    20    15   ar
    26    14     3    1
    27    11     6    1
    28    13     8    1
    29     1     2    1
@<TRIPOS>MOLECULE
*****
 25 29 0 0 0
SMALL
GASTEIGER

@<TRIPOS>ATOM
      1 N         142.2625  138.8416  158.5426 N.pl3   1  UNL1       -0.2535
      2 H         141.4784  139.3895  158.3099 H       1  UNL1        0.1579
      3 C         142.8326  138.8986  159.9288 C.2     1  UNL1        0.2847
      4 N         142.6804  137.8481  160.9887 N.2     1  UNL1       -0.2204
      5 C         143.4088  138.3165  162.2135 C.3     1  UNL1        0.1712
      6 C         144.0112  139.6564  161.9106 C.3     1  UNL1        0.1729
      7 C         144.5508  140.9829  161.4645 C.3     1  UNL1        0.1147
      8 N         145.3661  141.8167  162.4079 N.3     1  UNL1       -0.2697
      9 C         145.6419  141.3238  163.7975 C.3     1  UNL1        0.0723
     10 C         145.1024  139.9973  164.2437 C.3     1  UNL1        0.0209
     11 C         144.2870  139.1635  163.3002 C.3     1  UNL1        0.0429
     12 C         144.3917  140.0454  162.3509 C.3     1  UNL1        0.0209
     13 C         144.6795  140.7529  162.1130 C.3     1  UNL1        0.0723
     14 O         143.6551  140.0161  160.4986 O.2     1  UNL1       -0.4536
     15 C         143.2184  135.5868  156.4827 C.ar    1  UNL1        0.1535
     16 C         142.5937  136.4787  157.5145 C.ar    1  UNL1        0.0720
     17 C         142.8871  137.9497  157.5109 C.ar    1  UNL1        0.1402
     18 N         143.8052  138.5288  156.4756 N.ar    1  UNL1       -0.2087
     19 C         144.4299  137.6370  155.4440 C.ar    1  UNL1        0.2014
     20 N         144.1364  136.1660  155.4475 N.ar    1  UNL1       -0.2061
     21 C         143.0231  131.7437  156.9901 C.ar    1  UNL1        0.1197
     22 C         143.6421  133.0756  157.2947 C.ar    1  UNL1        0.1035
     23 N         142.9249  134.1158  156.4863 N.ar    1  UNL1       -0.2711
     24 C         141.8627  133.4267  155.6820 C.ar    1  UNL1        0.1840
     25 N         141.9234  131.9607  155.9934 N.ar    1  UNL1       -0.2220
@<TRIPOS>BOND
     1    21    22   ar
     2    22    23   ar
     3    23    15    1
     4    15    16   ar
     5    16    17   ar
     6    17     1    1
     7     1     3    1
     8     3     4    2
     9     4     5    1
    10     6     5    1
    11     6     7    1
    12     7     8    1
    13     8     9    1
    14     9    10    1
    15    10    11    1
    16    11    12    1
    17    12    13    1
    18     6    14    1
    19    17    18   ar
    20    18    19   ar
    21    19    20   ar
    22    23    24   ar
    23    24    25   ar
    24    25    21   ar
    25    20    15   ar
    26    14     3    1
    27    11     6    1
    28    13     8    1
    29     1     2    1
@<TRIPOS>MOLECULE
*****
 25 29 0 0 0
SMALL
GASTEIGER

@<TRIPOS>ATOM
      1 N         141.9653  138.0906  164.7399 N.pl3   1  UNL1       -0.2535
      2 H         141.9460  137.1091  164.6652 H       1  UNL1        0.1579
      3 C         141.2351  138.7722  165.8588 C.2     1  UNL1        0.2847
      4 N         139.7844  139.1537  165.8617 N.2     1  UNL1       -0.2204
      5 C         139.4801  139.8093  167.1761 C.3     1  UNL1        0.1712
      6 C         140.7427  139.8330  167.9856 C.3     1  UNL1        0.1729
      7 C         142.0747  139.7853  168.6737 C.3     1  UNL1        0.1147
      8 N         142.2261  140.3506  170.0548 N.3     1  UNL1       -0.2697
      9 C         141.0455  140.9637  170.7478 C.3     1  UNL1        0.0723
     10 C         139.7135  141.0114  170.0597 C.3     1  UNL1        0.0209
     11 C         139.5621  140.4460  168.6786 C.3     1  UNL1        0.0429
     12 C         140.8134  140.0968  168.6301 C.3     1  UNL1        0.0209
     13 C         141.5237  140.0714  168.9971 C.3     1  UNL1        0.0723
     14 O         141.8273  139.1920  167.1715 O.2     1  UNL1       -0.4536
     15 C         143.6233  141.2003  162.9146 C.ar    1  UNL1        0.1535
     16 C         142.8636  140.3864  163.9200 C.ar    1  UNL1        0.0720
     17 C         142.7249  138.9044  163.7346 C.ar    1  UNL1        0.1402
     18 N         143.3459  138.2362  162.5438 N.ar    1  UNL1       -0.2087
     19 C         144.1056  139.0500  161.5385 C.ar    1  UNL1        0.2014
     20 N         144.2442  140.5320  161.7239 N.ar    1  UNL1       -0.2061
     21 C         143.7760  144.8915  164.1049 C.ar    1  UNL1        0.1197
     22 C         143.5211  143.4379  164.3733 C.ar    1  UNL1        0.1035
     23 N         143.7619  142.6823  163.1001 N.ar    1  UNL1       -0.2711
     24 C         144.1657  143.6690  162.0448 C.ar    1  UNL1        0.1840
     25 N         144.1744  145.0342  162.6659 N.ar    1  UNL1       -0.2220
@<TRIPOS>BOND
     1    21    22   ar
     2    22    23   ar
     3    23    15    1
     4    15    16   ar
     5    16    17   ar
     6    17     1    1
     7     1     3    1
     8     3     4    2
     9     4     5    1
    10     6     5    1
    11     6     7    1
    12     7     8    1
    13     8     9    1
    14     9    10    1
    15    10    11    1
    16    11    12    1
    17    12    13    1
    18     6    14    1
    19    17    18   ar
    20    18    19   ar
    21    19    20   ar
    22    23    24   ar
    23    24    25   ar
    24    25    21   ar
    25    20    15   ar
    26    14     3    1
    27    11     6    1
    28    13     8    1
    29     1     2    1
@<TRIPOS>MOLECULE
*****
 25 29 0 0 0
SMALL
GASTEIGER

@<TRIPOS>ATOM
      1 N         138.3085  143.1498  161.5654 N.pl3   1  UNL1       -0.2535
      2 H         137.4819  143.4314  161.1107 H       1  UNL1        0.1579
      3 C         138.2381  142.2278  162.7464 C.2     1  UNL1        0.2847
      4 N         137.8250  142.6070  164.1377 N.2     1  UNL1       -0.2204
      5 C         137.9000  141.3782  164.9946 C.3     1  UNL1        0.1712
      6 C         138.3594  140.2395  164.1330 C.3     1  UNL1        0.1729
      7 C         138.8237  139.2034  163.1527 C.3     1  UNL1        0.1147
      8 N         139.0368  137.7882  163.6017 N.3     1  UNL1       -0.2697
      9 C         138.7856  137.4089  165.0311 C.3     1  UNL1        0.0723
     10 C         138.3214  138.4450  166.0114 C.3     1  UNL1        0.0209
     11 C         138.1083  139.8602  165.5624 C.3     1  UNL1        0.0429
     12 C         138.4589  139.5790  164.3426 C.3     1  UNL1        0.0209
     13 C         138.7065  139.0265  163.8197 C.3     1  UNL1        0.0723
     14 O         138.5683  140.7646  162.7436 O.2     1  UNL1       -0.4536
     15 C         142.2337  143.5963  161.1865 C.ar    1  UNL1        0.1535
     16 C         140.9038  143.1032  161.6748 C.ar    1  UNL1        0.0720
     17 C         139.6383  143.6428  161.0771 C.ar    1  UNL1        0.1402
     18 N         139.7026  144.6754  159.9910 N.ar    1  UNL1       -0.2087
     19 C         141.0324  145.1685  159.5026 C.ar    1  UNL1        0.2014
     20 N         142.2979  144.6289  160.1004 N.ar    1  UNL1       -0.2061
     21 C         145.2531  142.5109  163.3705 C.ar    1  UNL1        0.1197
     22 C         143.9300  143.1999  163.2139 C.ar    1  UNL1        0.1035
     23 N         143.4992  143.0567  161.7842 N.ar    1  UNL1       -0.2711
     24 C         144.5561  142.2792  161.0573 C.ar    1  UNL1        0.1840
     25 N         145.6400  141.9419  162.0377 N.ar    1  UNL1       -0.2220
@<TRIPOS>BOND
     1    21    22   ar
     2    22    23   ar
     3    23    15    1
     4    15    16   ar
     5    16    17   ar
     6    17     1    1
     7     1     3    1
     8     3     4    2
     9     4     5    1
    10     6     5    1
    11     6     7    1
    12     7     8    1
    13     8     9    1
    14     9    10    1
    15    10    11    1
    16    11    12    1
    17    12    13    1
    18     6    14    1
    19    17    18   ar
    20    18    19   ar
    21    19    20   ar
    22    23    24   ar
    23    24    25   ar
    24    25    21   ar
    25    20    15   ar
    26    14     3    1
    27    11     6    1
    28    13     8    1
    29     1     2    1
