@<TRIPOS>MOLECULE
*****
 40 46 0 0 0
SMALL
GASTEIGER

@<TRIPOS>ATOM
      1 C         140.7364  141.1484  159.9196 C.3     1  UNL1        0.1706
      2 N         141.0717  140.0806  158.9209 N.3     1  UNL1       -0.2797
      3 C         142.3931  139.3744  158.9932 C.3     1  UNL1        0.1167
      4 C         143.3791  139.7360  160.0641 C.3     1  UNL1        0.0511
      5 C         143.0438  140.8038  161.0628 C.2     1  UNL1       -0.0037
      6 C         141.7225  141.5100  160.9905 C.2     1  UNL1        0.0800
      7 N         141.6715  142.5130  162.1047 N.2     1  UNL1       -0.2519
      8 C         142.9614  142.4267  162.8655 C.2     1  UNL1        0.0627
      9 C         143.4731  143.1736  164.0614 C.3     1  UNL1        0.0717
     10 C         144.8330  142.8641  164.6134 C.2     1  UNL1       -0.0198
     11 C         145.6812  141.8077  163.9695 C.2     1  UNL1       -0.0042
     12 C         145.1695  141.0608  162.7736 C.2     1  UNL1        0.0006
     13 C         143.8095  141.3703  162.2216 C.2     1  UNL1        0.0111
     14 H         141.0190  140.5131  157.9986 H       1  UNL1        0.1246
     15 C         139.4827  141.1590  159.0962 C.ar    1  UNL1        0.0439
     16 C         138.3377  140.1980  159.2211 C.ar    1  UNL1        0.1194
     17 N         137.3012  140.5776  158.2053 N.ar    1  UNL1       -0.1679
     18 N         137.8055  141.7730  157.4527 N.ar    1  UNL1       -0.2476
     19 C         137.0877  142.4843  156.3443 C.3     1  UNL1        0.1537
     20 C         139.1538  142.1324  158.0033 C.ar    1  UNL1        0.0945
     21 C         142.7284  138.3066  157.9944 C.ar    1  UNL1        0.1319
     22 N         142.2775  136.8770  158.0475 N.ar    1  UNL1       -0.2282
     23 C         142.8439  136.1677  156.8532 C.ar    1  UNL1        0.1171
     24 C         143.6448  137.1591  156.0621 C.ar    1  UNL1        0.0942
     25 N         143.5734  138.4810  156.7675 N.ar    1  UNL1       -0.3385
     26 H         144.0054  139.3163  156.4762 H       1  UNL1        0.1672
     27 C         142.6444  134.7211  156.5103 C.ar    1  UNL1        0.1006
     28 C         141.6916  134.3337  155.4184 C.ar    1  UNL1        0.0230
     29 C         141.4921  132.8872  155.0754 C.ar    1  UNL1        0.0328
     30 C         142.2453  131.8280  155.8243 C.ar    1  UNL1        0.1592
     31 F         142.0458  130.3814  155.4814 F       1  UNL1       -0.2025
     32 C         143.1981  132.2155  156.9162 C.ar    1  UNL1        0.1284
     33 N         143.3976  133.6620  157.2592 N.ar    1  UNL1       -0.2399
     34 C         138.4844  143.3522  162.1860 C.ar    1  UNL1        0.2262
     35 N         139.0751  144.3849  161.2725 N.ar    1  UNL1       -0.1116
     36 N         139.9906  143.6850  160.3123 N.ar    1  UNL1       -0.1096
     37 C         139.9657  142.2199  160.6324 C.ar    1  UNL1        0.2478
     38 O         139.0348  142.0141  161.7904 O.2     1  UNL1       -0.4213
     39 C         137.9916  144.2214  164.5843 C.3     1  UNL1        0.0103
     40 C         137.5136  143.6120  163.2997 C.3     1  UNL1        0.0870
@<TRIPOS>BOND
     1    39    40    1
     2    40    34    1
     3    34    35   ar
     4    35    36   ar
     5    36    37   ar
     6     1    37    1
     7     1    15    1
     8    15    16   ar
     9    16    17   ar
    10    17    18   ar
    11    18    19    1
    12    18    20   ar
    13     1     2    1
    14     2     3    1
    15     3    21    1
    16    21    22   ar
    17    22    23   ar
    18    23    27    1
    19    27    28   ar
    20    28    29   ar
    21    29    30   ar
    22    30    31    1
    23    30    32   ar
    24    32    33   ar
    25    23    24   ar
    26    24    25   ar
    27     3     4    1
    28     4     5    1
    29     5     6    2
    30     6     7    1
    31     7     8    2
    32     8     9    1
    33     9    10    1
    34    10    11    2
    35    11    12    1
    36    12    13    2
    37    37    38   ar
    38    38    34   ar
    39     6     1    1
    40    13     8    1
    41    20    15   ar
    42    25    21   ar
    43    13     5    1
    44    33    27   ar
    45     2    14    1
    46    25    26    1
@<TRIPOS>MOLECULE
*****
 40 46 0 0 0
SMALL
GASTEIGER

@<TRIPOS>ATOM
      1 C         140.0968  141.6413  160.9339 C.3     1  UNL1        0.1706
      2 N         140.8021  140.9887  159.7821 N.3     1  UNL1       -0.2797
      3 C         141.0816  139.5153  159.8114 C.3     1  UNL1        0.1167
      4 C         140.6557  138.6944  160.9924 C.3     1  UNL1        0.0511
      5 C         139.9503  139.3469  162.1442 C.2     1  UNL1       -0.0037
      6 C         139.6709  140.8204  162.1149 C.2     1  UNL1        0.0800
      7 N         138.9633  141.1833  163.3868 N.2     1  UNL1       -0.2519
      8 C         138.8055  139.9341  164.2021 C.2     1  UNL1        0.0627
      9 C         138.1852  139.6835  165.5446 C.3     1  UNL1        0.0717
     10 C         138.1748  138.2979  166.1191 C.2     1  UNL1       -0.0198
     11 C         138.7848  137.1630  165.3511 C.2     1  UNL1       -0.0042
     12 C         139.4051  137.4136  164.0086 C.2     1  UNL1        0.0006
     13 C         139.4155  138.7992  163.4341 C.2     1  UNL1        0.0111
     14 H         141.7028  141.4574  159.6847 H       1  UNL1        0.1246
     15 C         140.3025  142.8324  160.0458 C.ar    1  UNL1        0.0439
     16 C         141.2366  143.9766  160.3077 C.ar    1  UNL1        0.1194
     17 N         141.1216  144.9399  159.1636 N.ar    1  UNL1       -0.1679
     18 N         140.1165  144.3912  158.1947 N.ar    1  UNL1       -0.2476
     19 C         139.6922  145.0323  156.9068 C.3     1  UNL1        0.1537
     20 C         139.6103  143.0887  158.7400 C.ar    1  UNL1        0.0945
     21 C         141.7870  138.8626  158.6595 C.ar    1  UNL1        0.1319
     22 N         141.7114  137.4115  158.2874 N.ar    1  UNL1       -0.2282
     23 C         142.5694  137.1986  157.0756 C.ar    1  UNL1        0.1171
     24 C         143.1752  138.5181  156.6988 C.ar    1  UNL1        0.0942
     25 N         142.6916  139.5465  157.6778 N.ar    1  UNL1       -0.3385
     26 H         142.9267  140.5026  157.6763 H       1  UNL1        0.1672
     27 C         142.7840  135.8949  156.3652 C.ar    1  UNL1        0.1006
     28 C         142.3928  135.7529  154.9241 C.ar    1  UNL1        0.0230
     29 C         142.6073  134.4493  154.2137 C.ar    1  UNL1        0.0328
     30 C         143.2130  133.2878  154.9444 C.ar    1  UNL1        0.1592
     31 F         143.4276  131.9842  154.2341 F       1  UNL1       -0.2025
     32 C         143.6043  133.4299  156.3855 C.ar    1  UNL1        0.1284
     33 N         143.3898  134.7335  157.0959 N.ar    1  UNL1       -0.2399
     34 C         139.0827  144.3411  163.5315 C.ar    1  UNL1        0.2262
     35 N         137.8923  144.3553  162.6190 N.ar    1  UNL1       -0.1116
     36 N         138.1273  143.3457  161.5348 N.ar    1  UNL1       -0.1096
     37 C         139.4628  142.7075  161.7773 C.ar    1  UNL1        0.2478
     38 O         140.0534  143.3227  163.0113 O.2     1  UNL1       -0.4213
     39 C         138.2838  145.1187  165.8783 C.3     1  UNL1        0.0103
     40 C         139.2696  145.1954  164.7503 C.3     1  UNL1        0.0870
@<TRIPOS>BOND
     1    39    40    1
     2    40    34    1
     3    34    35   ar
     4    35    36   ar
     5    36    37   ar
     6     1    37    1
     7     1    15    1
     8    15    16   ar
     9    16    17   ar
    10    17    18   ar
    11    18    19    1
    12    18    20   ar
    13     1     2    1
    14     2     3    1
    15     3    21    1
    16    21    22   ar
    17    22    23   ar
    18    23    27    1
    19    27    28   ar
    20    28    29   ar
    21    29    30   ar
    22    30    31    1
    23    30    32   ar
    24    32    33   ar
    25    23    24   ar
    26    24    25   ar
    27     3     4    1
    28     4     5    1
    29     5     6    2
    30     6     7    1
    31     7     8    2
    32     8     9    1
    33     9    10    1
    34    10    11    2
    35    11    12    1
    36    12    13    2
    37    37    38   ar
    38    38    34   ar
    39     6     1    1
    40    13     8    1
    41    20    15   ar
    42    25    21   ar
    43    13     5    1
    44    33    27   ar
    45     2    14    1
    46    25    26    1
@<TRIPOS>MOLECULE
*****
 40 46 0 0 0
SMALL
GASTEIGER

@<TRIPOS>ATOM
      1 C         139.7114  141.6177  160.0758 C.3     1  UNL1        0.1706
      2 N         139.8127  140.7972  158.8242 N.3     1  UNL1       -0.2797
      3 C         139.6830  139.3044  158.8935 C.3     1  UNL1        0.1167
      4 C         139.4521  138.6321  160.2144 C.3     1  UNL1        0.0511
      5 C         139.3508  139.4526  161.4660 C.2     1  UNL1       -0.0037
      6 C         139.4804  140.9454  161.3967 C.2     1  UNL1        0.0800
      7 N         139.3381  141.4881  162.7878 N.2     1  UNL1       -0.2519
      8 C         139.1205  140.3307  163.7169 C.2     1  UNL1        0.0627
      9 C         138.9162  140.2598  165.2012 C.3     1  UNL1        0.0717
     10 C         138.7198  138.9309  165.8686 C.2     1  UNL1       -0.0198
     11 C         138.7276  137.6729  165.0516 C.2     1  UNL1       -0.0042
     12 C         138.9319  137.7438  163.5673 C.2     1  UNL1        0.0006
     13 C         139.1283  139.0727  162.9000 C.2     1  UNL1        0.0111
     14 H         140.7262  140.9948  158.4157 H       1  UNL1        0.1246
     15 C         139.9339  142.7062  159.0681 C.ar    1  UNL1        0.0439
     16 C         138.9558  143.1531  158.0223 C.ar    1  UNL1        0.1194
     17 N         139.5912  144.2621  157.2371 N.ar    1  UNL1       -0.1679
     18 N         140.9619  144.5006  157.7975 N.ar    1  UNL1       -0.2476
     19 C         141.9477  145.5214  157.3117 C.3     1  UNL1        0.1537
     20 C         141.1738  143.5390  158.9291 C.ar    1  UNL1        0.0945
     21 C         139.7843  138.4838  157.6419 C.ar    1  UNL1        0.1319
     22 N         140.7138  137.3279  157.4184 N.ar    1  UNL1       -0.2282
     23 C         140.4779  136.8048  156.0325 C.ar    1  UNL1        0.1171
     24 C         139.4026  137.6374  155.3995 C.ar    1  UNL1        0.0942
     25 N         138.9740  138.6751  156.3942 N.ar    1  UNL1       -0.3385
     26 H         138.2822  139.3612  156.2530 H       1  UNL1        0.1672
     27 C         141.1919  135.6515  155.3920 C.ar    1  UNL1        0.1006
     28 C         140.9771  135.3504  153.9383 C.ar    1  UNL1        0.0230
     29 C         141.6911  134.1972  153.2978 C.ar    1  UNL1        0.0328
     30 C         142.6198  133.3451  154.1109 C.ar    1  UNL1        0.1592
     31 F         143.3339  132.1918  153.4704 F       1  UNL1       -0.2025
     32 C         142.8347  133.6462  155.5646 C.ar    1  UNL1        0.1284
     33 N         142.1207  134.7995  156.2051 N.ar    1  UNL1       -0.2399
     34 C         140.3812  144.5683  162.5069 C.ar    1  UNL1        0.2262
     35 N         138.9200  144.7528  162.2230 N.ar    1  UNL1       -0.1116
     36 N         138.4911  143.6699  161.2777 N.ar    1  UNL1       -0.1096
     37 C         139.6874  142.8162  160.9775 C.ar    1  UNL1        0.2478
     38 O         140.8555  143.3714  161.7372 O.2     1  UNL1       -0.4213
     39 C         142.6621  145.0865  163.6380 C.3     1  UNL1        0.0103
     40 C         141.2208  145.4295  163.4033 C.3     1  UNL1        0.0870
@<TRIPOS>BOND
     1    39    40    1
     2    40    34    1
     3    34    35   ar
     4    35    36   ar
     5    36    37   ar
     6     1    37    1
     7     1    15    1
     8    15    16   ar
     9    16    17   ar
    10    17    18   ar
    11    18    19    1
    12    18    20   ar
    13     1     2    1
    14     2     3    1
    15     3    21    1
    16    21    22   ar
    17    22    23   ar
    18    23    27    1
    19    27    28   ar
    20    28    29   ar
    21    29    30   ar
    22    30    31    1
    23    30    32   ar
    24    32    33   ar
    25    23    24   ar
    26    24    25   ar
    27     3     4    1
    28     4     5    1
    29     5     6    2
    30     6     7    1
    31     7     8    2
    32     8     9    1
    33     9    10    1
    34    10    11    2
    35    11    12    1
    36    12    13    2
    37    37    38   ar
    38    38    34   ar
    39     6     1    1
    40    13     8    1
    41    20    15   ar
    42    25    21   ar
    43    13     5    1
    44    33    27   ar
    45     2    14    1
    46    25    26    1
@<TRIPOS>MOLECULE
*****
 40 46 0 0 0
SMALL
GASTEIGER

@<TRIPOS>ATOM
      1 C         141.6754  142.0273  161.5397 C.3     1  UNL1        0.1706
      2 N         141.8947  141.3012  160.2456 N.3     1  UNL1       -0.2797
      3 C         142.4358  139.9023  160.2530 C.3     1  UNL1        0.1167
      4 C         142.7576  139.2293  161.5544 C.3     1  UNL1        0.0511
      5 C         142.5382  139.9553  162.8485 C.2     1  UNL1       -0.0037
      6 C         141.9971  141.3543  162.8412 C.2     1  UNL1        0.0800
      7 N         141.8861  141.8158  164.2641 N.2     1  UNL1       -0.2519
      8 C         142.3586  140.7020  165.1508 C.2     1  UNL1        0.0627
      9 C         142.4739  140.5863  166.6419 C.3     1  UNL1        0.0717
     10 C         142.9923  139.3207  167.2580 C.2     1  UNL1       -0.0198
     11 C         143.3953  138.1709  166.3831 C.2     1  UNL1       -0.0042
     12 C         143.2799  138.2866  164.8920 C.2     1  UNL1        0.0006
     13 C         142.7616  139.5522  164.2759 C.2     1  UNL1        0.0111
     14 H         142.5445  141.8654  159.6980 H       1  UNL1        0.1246
     15 C         141.2229  143.0792  160.5710 C.ar    1  UNL1        0.0439
     16 C         139.8039  143.4969  160.3221 C.ar    1  UNL1        0.1194
     17 N         139.8140  144.5741  159.2782 N.ar    1  UNL1       -0.1679
     18 N         141.2393  144.8222  158.8820 N.ar    1  UNL1       -0.2476
     19 C         141.7110  145.8191  157.8654 C.3     1  UNL1        0.1537
     20 C         142.1101  143.8983  159.6809 C.ar    1  UNL1        0.0945
     21 C         142.6552  139.1761  158.9588 C.ar    1  UNL1        0.1319
     22 N         142.6451  137.6881  158.7701 N.ar    1  UNL1       -0.2282
     23 C         142.9069  137.4029  157.3209 C.ar    1  UNL1        0.1171
     24 C         143.0788  138.7147  156.6140 C.ar    1  UNL1        0.0942
     25 N         142.9233  139.8106  157.6263 N.ar    1  UNL1       -0.3385
     26 H         142.9861  140.7767  157.4475 H       1  UNL1        0.1672
     27 C         142.9833  136.0444  156.6895 C.ar    1  UNL1        0.1006
     28 C         142.7739  135.8912  155.2121 C.ar    1  UNL1        0.0230
     29 C         142.8503  134.5327  154.5807 C.ar    1  UNL1        0.0328
     30 C         143.1361  133.3275  155.4266 C.ar    1  UNL1        0.1592
     31 F         143.2126  131.9690  154.7952 F       1  UNL1       -0.2025
     32 C         143.3455  133.4807  156.9040 C.ar    1  UNL1        0.1284
     33 N         143.2691  134.8392  157.5355 N.ar    1  UNL1       -0.2399
     34 C         140.0602  144.4623  164.0946 C.ar    1  UNL1        0.2262
     35 N         141.3786  145.1337  163.8479 N.ar    1  UNL1       -0.1116
     36 N         142.1441  144.3033  162.8607 N.ar    1  UNL1       -0.1096
     37 C         141.2989  143.1187  162.4975 C.ar    1  UNL1        0.2478
     38 O         140.0109  143.2169  163.2600 O.2     1  UNL1       -0.4213
     39 C         137.6209  144.3180  164.9774 C.3     1  UNL1        0.0103
     40 C         138.9805  144.9505  165.0144 C.3     1  UNL1        0.0870
@<TRIPOS>BOND
     1    39    40    1
     2    40    34    1
     3    34    35   ar
     4    35    36   ar
     5    36    37   ar
     6     1    37    1
     7     1    15    1
     8    15    16   ar
     9    16    17   ar
    10    17    18   ar
    11    18    19    1
    12    18    20   ar
    13     1     2    1
    14     2     3    1
    15     3    21    1
    16    21    22   ar
    17    22    23   ar
    18    23    27    1
    19    27    28   ar
    20    28    29   ar
    21    29    30   ar
    22    30    31    1
    23    30    32   ar
    24    32    33   ar
    25    23    24   ar
    26    24    25   ar
    27     3     4    1
    28     4     5    1
    29     5     6    2
    30     6     7    1
    31     7     8    2
    32     8     9    1
    33     9    10    1
    34    10    11    2
    35    11    12    1
    36    12    13    2
    37    37    38   ar
    38    38    34   ar
    39     6     1    1
    40    13     8    1
    41    20    15   ar
    42    25    21   ar
    43    13     5    1
    44    33    27   ar
    45     2    14    1
    46    25    26    1
@<TRIPOS>MOLECULE
*****
 40 46 0 0 0
SMALL
GASTEIGER

@<TRIPOS>ATOM
      1 C         142.3816  142.6405  160.3506 C.3     1  UNL1        0.1706
      2 N         141.8638  143.2653  159.0891 N.3     1  UNL1       -0.2797
      3 C         140.6966  144.2059  159.1423 C.3     1  UNL1        0.1167
      4 C         140.0471  144.5218  160.4570 C.3     1  UNL1        0.0511
      5 C         140.5649  143.8970  161.7186 C.2     1  UNL1       -0.0037
      6 C         141.7321  142.9564  161.6653 C.2     1  UNL1        0.0800
      7 N         142.0205  142.4961  163.0635 N.2     1  UNL1       -0.2519
      8 C         141.0316  143.1522  163.9809 C.2     1  UNL1        0.0627
      9 C         140.8340  143.0731  165.4657 C.3     1  UNL1        0.0717
     10 C         139.7368  143.8598  166.1192 C.2     1  UNL1       -0.0198
     11 C         138.8371  144.7256  165.2879 C.2     1  UNL1       -0.0042
     12 C         139.0347  144.8047  163.8031 C.2     1  UNL1        0.0006
     13 C         140.1319  144.0180  163.1496 C.2     1  UNL1        0.0111
     14 H         141.5974  142.5002  158.4694 H       1  UNL1        0.1246
     15 C         143.3246  142.0347  159.3538 C.ar    1  UNL1        0.0439
     16 C         143.3875  140.5868  158.9667 C.ar    1  UNL1        0.1194
     17 N         144.4721  140.4277  157.9427 N.ar    1  UNL1       -0.1679
     18 N         145.0794  141.7770  157.6970 N.ar    1  UNL1       -0.2476
     19 C         146.1992  142.0800  156.7463 C.3     1  UNL1        0.1537
     20 C         144.3702  142.7702  158.5692 C.ar    1  UNL1        0.0945
     21 C         140.1787  144.8308  157.8807 C.ar    1  UNL1        0.1319
     22 N         140.3030  146.2755  157.4970 N.ar    1  UNL1       -0.2282
     23 C         139.6468  146.4582  156.1605 C.ar    1  UNL1        0.1171
     24 C         139.1170  145.1264  155.7184 C.ar    1  UNL1        0.0942
     25 N         139.4457  144.1206  156.7815 N.ar    1  UNL1       -0.3385
     26 H         139.2200  143.1625  156.7613 H       1  UNL1        0.1672
     27 C         139.5394  147.7466  155.3998 C.ar    1  UNL1        0.1006
     28 C         140.1071  147.8497  154.0153 C.ar    1  UNL1        0.0230
     29 C         139.9997  149.1380  153.2546 C.ar    1  UNL1        0.0328
     30 C         139.3245  150.3232  153.8785 C.ar    1  UNL1        0.1592
     31 F         139.2170  151.6116  153.1178 F       1  UNL1       -0.2025
     32 C         138.7568  150.2202  155.2630 C.ar    1  UNL1        0.1284
     33 N         138.8642  148.9319  156.0237 N.ar    1  UNL1       -0.2399
     34 C         143.9614  140.0346  162.7544 C.ar    1  UNL1        0.2262
     35 N         145.0935  141.0054  162.5950 N.ar    1  UNL1       -0.1116
     36 N         144.6395  142.0999  161.6751 N.ar    1  UNL1       -0.1096
     37 C         143.2269  141.8053  161.2661 C.ar    1  UNL1        0.2478
     38 O         142.8076  140.5289  161.9331 O.2     1  UNL1       -0.4213
     39 C         144.1233  138.8850  165.0788 C.3     1  UNL1        0.0103
     40 C         143.9797  138.7881  163.5888 C.3     1  UNL1        0.0870
@<TRIPOS>BOND
     1    39    40    1
     2    40    34    1
     3    34    35   ar
     4    35    36   ar
     5    36    37   ar
     6     1    37    1
     7     1    15    1
     8    15    16   ar
     9    16    17   ar
    10    17    18   ar
    11    18    19    1
    12    18    20   ar
    13     1     2    1
    14     2     3    1
    15     3    21    1
    16    21    22   ar
    17    22    23   ar
    18    23    27    1
    19    27    28   ar
    20    28    29   ar
    21    29    30   ar
    22    30    31    1
    23    30    32   ar
    24    32    33   ar
    25    23    24   ar
    26    24    25   ar
    27     3     4    1
    28     4     5    1
    29     5     6    2
    30     6     7    1
    31     7     8    2
    32     8     9    1
    33     9    10    1
    34    10    11    2
    35    11    12    1
    36    12    13    2
    37    37    38   ar
    38    38    34   ar
    39     6     1    1
    40    13     8    1
    41    20    15   ar
    42    25    21   ar
    43    13     5    1
    44    33    27   ar
    45     2    14    1
    46    25    26    1
@<TRIPOS>MOLECULE
*****
 40 46 0 0 0
SMALL
GASTEIGER

@<TRIPOS>ATOM
      1 C         141.7368  142.0259  160.1164 C.3     1  UNL1        0.1706
      2 N         140.9542  141.5757  158.9186 N.3     1  UNL1       -0.2797
      3 C         139.4589  141.6948  158.9116 C.3     1  UNL1        0.1167
      4 C         138.7463  142.2641  160.1025 C.3     1  UNL1        0.0511
      5 C         139.5289  142.7142  161.3003 C.2     1  UNL1       -0.0037
      6 C         141.0242  142.5951  161.3073 C.2     1  UNL1        0.0800
      7 N         141.5246  143.1181  162.6211 N.2     1  UNL1       -0.2519
      8 C         140.3387  143.5604  163.4261 C.2     1  UNL1        0.0627
      9 C         140.2227  144.1582  164.7969 C.3     1  UNL1        0.0717
     10 C         138.8732  144.5064  165.3514 C.2     1  UNL1       -0.0198
     11 C         137.6397  144.2567  164.5351 C.2     1  UNL1       -0.0042
     12 C         137.7558  143.6590  163.1643 C.2     1  UNL1        0.0006
     13 C         139.1053  143.3108  162.6098 C.2     1  UNL1        0.0111
     14 H         141.1716  140.5890  158.7786 H       1  UNL1        0.1246
     15 C         142.8562  141.5563  159.2353 C.ar    1  UNL1        0.0439
     16 C         143.2492  140.1289  158.9943 C.ar    1  UNL1        0.1194
     17 N         144.4151  140.1222  158.0505 N.ar    1  UNL1       -0.1679
     18 N         144.7427  141.5454  157.7083 N.ar    1  UNL1       -0.2476
     19 C         145.8408  142.0021  156.7943 C.3     1  UNL1        0.1537
     20 C         143.7792  142.4318  158.4405 C.ar    1  UNL1        0.0945
     21 C         138.6762  141.2446  157.7138 C.ar    1  UNL1        0.1319
     22 N         137.3238  141.7478  157.3044 N.ar    1  UNL1       -0.2282
     23 C         136.9202  141.0264  156.0526 C.ar    1  UNL1        0.1171
     24 C         138.0233  140.0775  155.6885 C.ar    1  UNL1        0.0942
     25 N         139.1086  140.2123  156.7151 N.ar    1  UNL1       -0.3385
     26 H         139.9559  139.7112  156.7307 H       1  UNL1        0.1672
     27 C         135.6386  141.2201  155.2976 C.ar    1  UNL1        0.1006
     28 C         135.6727  141.6118  153.8501 C.ar    1  UNL1        0.0230
     29 C         134.3912  141.8055  153.0951 C.ar    1  UNL1        0.0328
     30 C         133.0755  141.6074  153.7877 C.ar    1  UNL1        0.1592
     31 F         131.7938  141.8011  153.0327 F       1  UNL1       -0.2025
     32 C         133.0413  141.2157  155.2352 C.ar    1  UNL1        0.1284
     33 N         134.3229  141.0220  155.9902 N.ar    1  UNL1       -0.2399
     34 C         144.7211  142.0370  162.5982 C.ar    1  UNL1        0.2262
     35 N         144.7004  143.4724  162.1634 N.ar    1  UNL1       -0.1116
     36 N         143.5799  143.6429  161.1807 N.ar    1  UNL1       -0.1096
     37 C         142.9082  142.3130  161.0083 C.ar    1  UNL1        0.2478
     38 O         143.6134  141.3204  161.8843 O.2     1  UNL1       -0.4213
     39 C         145.3734  140.0949  164.1961 C.3     1  UNL1        0.0103
     40 C         145.6809  141.4254  163.5754 C.3     1  UNL1        0.0870
@<TRIPOS>BOND
     1    39    40    1
     2    40    34    1
     3    34    35   ar
     4    35    36   ar
     5    36    37   ar
     6     1    37    1
     7     1    15    1
     8    15    16   ar
     9    16    17   ar
    10    17    18   ar
    11    18    19    1
    12    18    20   ar
    13     1     2    1
    14     2     3    1
    15     3    21    1
    16    21    22   ar
    17    22    23   ar
    18    23    27    1
    19    27    28   ar
    20    28    29   ar
    21    29    30   ar
    22    30    31    1
    23    30    32   ar
    24    32    33   ar
    25    23    24   ar
    26    24    25   ar
    27     3     4    1
    28     4     5    1
    29     5     6    2
    30     6     7    1
    31     7     8    2
    32     8     9    1
    33     9    10    1
    34    10    11    2
    35    11    12    1
    36    12    13    2
    37    37    38   ar
    38    38    34   ar
    39     6     1    1
    40    13     8    1
    41    20    15   ar
    42    25    21   ar
    43    13     5    1
    44    33    27   ar
    45     2    14    1
    46    25    26    1
@<TRIPOS>MOLECULE
*****
 40 46 0 0 0
SMALL
GASTEIGER

@<TRIPOS>ATOM
      1 C         141.7308  141.7175  158.8043 C.3     1  UNL1        0.1706
      2 N         141.6268  140.4428  158.0205 N.3     1  UNL1       -0.2797
      3 C         142.3161  139.2035  158.5092 C.3     1  UNL1        0.1167
      4 C         143.1095  139.2389  159.7817 C.3     1  UNL1        0.0511
      5 C         143.2136  140.5135  160.5655 C.2     1  UNL1       -0.0037
      6 C         142.5243  141.7529  160.0768 C.2     1  UNL1        0.0800
      7 N         142.8041  142.8551  161.0549 N.2     1  UNL1       -0.2519
      8 C         143.6663  142.2971  162.1481 C.2     1  UNL1        0.0627
      9 C         144.2537  142.9198  163.3798 C.3     1  UNL1        0.0717
     10 C         145.0942  142.0952  164.3091 C.2     1  UNL1       -0.0198
     11 C         145.3473  140.6480  164.0067 C.2     1  UNL1       -0.0042
     12 C         144.7599  140.0253  162.7749 C.2     1  UNL1        0.0006
     13 C         143.9194  140.8499  161.8456 C.2     1  UNL1        0.0111
     14 H         141.9967  140.6381  157.0902 H       1  UNL1        0.1246
     15 C         140.8697  142.1807  157.6668 C.ar    1  UNL1        0.0439
     16 C         141.3399  142.5025  156.2792 C.ar    1  UNL1        0.1194
     17 N         140.1479  142.9242  155.4721 N.ar    1  UNL1       -0.1679
     18 N         138.9411  142.8630  156.3608 N.ar    1  UNL1       -0.2476
     19 C         137.5351  143.2018  155.9630 C.3     1  UNL1        0.1537
     20 C         139.3872  142.4035  157.7172 C.ar    1  UNL1        0.0945
     21 C         142.2121  137.9287  157.7254 C.ar    1  UNL1        0.1319
     22 N         143.1350  136.7510  157.8311 N.ar    1  UNL1       -0.2282
     23 C         142.6602  135.7024  156.8694 C.ar    1  UNL1        0.1171
     24 C         141.4439  136.2320  156.1693 C.ar    1  UNL1        0.0942
     25 N         141.1669  137.6080  156.6984 N.ar    1  UNL1       -0.3385
     26 H         140.4288  138.1972  156.4204 H       1  UNL1        0.1672
     27 C         143.2910  134.3597  156.6468 C.ar    1  UNL1        0.1006
     28 C         143.0748  133.6350  155.3514 C.ar    1  UNL1        0.0230
     29 C         143.7056  132.2924  155.1288 C.ar    1  UNL1        0.0328
     30 C         144.5525  131.6746  156.2016 C.ar    1  UNL1        0.1592
     31 F         145.1833  130.3319  155.9790 F       1  UNL1       -0.2025
     32 C         144.7687  132.3993  157.4970 C.ar    1  UNL1        0.1284
     33 N         144.1379  133.7419  157.7196 N.ar    1  UNL1       -0.2399
     34 C         140.6828  145.1610  160.2565 C.ar    1  UNL1        0.2262
     35 N         141.7887  145.5632  159.3265 N.ar    1  UNL1       -0.1116
     36 N         142.3160  144.3222  158.6692 N.ar    1  UNL1       -0.1096
     37 C         141.5359  143.1531  159.1931 C.ar    1  UNL1        0.2478
     38 O         140.5265  143.6715  160.1741 O.2     1  UNL1       -0.4213
     39 C         139.4494  145.6533  162.4895 C.3     1  UNL1        0.0103
     40 C         139.8749  146.0860  161.1178 C.3     1  UNL1        0.0870
@<TRIPOS>BOND
     1    39    40    1
     2    40    34    1
     3    34    35   ar
     4    35    36   ar
     5    36    37   ar
     6     1    37    1
     7     1    15    1
     8    15    16   ar
     9    16    17   ar
    10    17    18   ar
    11    18    19    1
    12    18    20   ar
    13     1     2    1
    14     2     3    1
    15     3    21    1
    16    21    22   ar
    17    22    23   ar
    18    23    27    1
    19    27    28   ar
    20    28    29   ar
    21    29    30   ar
    22    30    31    1
    23    30    32   ar
    24    32    33   ar
    25    23    24   ar
    26    24    25   ar
    27     3     4    1
    28     4     5    1
    29     5     6    2
    30     6     7    1
    31     7     8    2
    32     8     9    1
    33     9    10    1
    34    10    11    2
    35    11    12    1
    36    12    13    2
    37    37    38   ar
    38    38    34   ar
    39     6     1    1
    40    13     8    1
    41    20    15   ar
    42    25    21   ar
    43    13     5    1
    44    33    27   ar
    45     2    14    1
    46    25    26    1
@<TRIPOS>MOLECULE
*****
 40 46 0 0 0
SMALL
GASTEIGER

@<TRIPOS>ATOM
      1 C         141.4780  141.3798  160.4784 C.3     1  UNL1        0.1706
      2 N         141.2729  142.0840  159.1700 N.3     1  UNL1       -0.2797
      3 C         140.5421  143.3933  159.1295 C.3     1  UNL1        0.1167
      4 C         140.0164  143.9983  160.3974 C.3     1  UNL1        0.0511
      5 C         140.2215  143.2941  161.7058 C.2     1  UNL1       -0.0037
      6 C         140.9523  141.9848  161.7463 C.2     1  UNL1        0.0800
      7 N         141.0021  141.5258  163.1735 N.2     1  UNL1       -0.2519
      8 C         140.3020  142.5513  164.0150 C.2     1  UNL1        0.0627
      9 C         140.0416  142.6312  165.4900 C.3     1  UNL1        0.0717
     10 C         139.2986  143.8040  166.0580 C.2     1  UNL1       -0.0198
     11 C         138.8162  144.8969  165.1509 C.2     1  UNL1       -0.0042
     12 C         139.0766  144.8170  163.6759 C.2     1  UNL1        0.0006
     13 C         139.8196  143.6442  163.1079 C.2     1  UNL1        0.0111
     14 H         140.7593  141.4413  158.5671 H       1  UNL1        0.1246
     15 C         142.1568  140.4136  159.5534 C.ar    1  UNL1        0.0439
     16 C         143.5253  140.5740  158.9604 C.ar    1  UNL1        0.1194
     17 N         143.8005  139.3769  158.0994 N.ar    1  UNL1       -0.1679
     18 N         142.6023  138.4766  158.1604 N.ar    1  UNL1       -0.2476
     19 C         142.4472  137.1659  157.4479 C.3     1  UNL1        0.1537
     20 C         141.5864  139.1173  159.0590 C.ar    1  UNL1        0.0945
     21 C         140.3369  144.0976  157.8211 C.ar    1  UNL1        0.1319
     22 N         140.1483  145.5739  157.6346 N.ar    1  UNL1       -0.2282
     23 C         139.9792  145.8380  156.1677 C.ar    1  UNL1        0.1171
     24 C         140.0633  144.5248  155.4477 C.ar    1  UNL1        0.0942
     25 N         140.2844  143.4492  156.4695 N.ar    1  UNL1       -0.3385
     26 H         140.3786  142.4866  156.2854 H       1  UNL1        0.1672
     27 C         139.7638  147.1797  155.5325 C.ar    1  UNL1        0.1006
     28 C         138.8921  148.1974  156.2066 C.ar    1  UNL1        0.0230
     29 C         138.6767  149.5391  155.5715 C.ar    1  UNL1        0.0328
     30 C         139.3329  149.8630  154.2621 C.ar    1  UNL1        0.1592
     31 F         139.1175  151.2047  153.6269 F       1  UNL1       -0.2025
     32 C         140.2046  148.8453  153.5880 C.ar    1  UNL1        0.1284
     33 N         140.4200  147.5036  154.2232 N.ar    1  UNL1       -0.2399
     34 C         141.9058  138.4491  162.9871 C.ar    1  UNL1        0.2262
     35 N         143.2884  139.0308  162.9825 N.ar    1  UNL1       -0.1116
     36 N         143.2964  140.1995  162.0421 N.ar    1  UNL1       -0.1096
     37 C         141.9189  140.3400  161.4657 C.ar    1  UNL1        0.2478
     38 O         141.0594  139.2582  162.0496 O.2     1  UNL1       -0.4213
     39 C         140.2563  137.3853  164.6892 C.3     1  UNL1        0.0103
     40 C         141.4498  137.2659  163.7885 C.3     1  UNL1        0.0870
@<TRIPOS>BOND
     1    39    40    1
     2    40    34    1
     3    34    35   ar
     4    35    36   ar
     5    36    37   ar
     6     1    37    1
     7     1    15    1
     8    15    16   ar
     9    16    17   ar
    10    17    18   ar
    11    18    19    1
    12    18    20   ar
    13     1     2    1
    14     2     3    1
    15     3    21    1
    16    21    22   ar
    17    22    23   ar
    18    23    27    1
    19    27    28   ar
    20    28    29   ar
    21    29    30   ar
    22    30    31    1
    23    30    32   ar
    24    32    33   ar
    25    23    24   ar
    26    24    25   ar
    27     3     4    1
    28     4     5    1
    29     5     6    2
    30     6     7    1
    31     7     8    2
    32     8     9    1
    33     9    10    1
    34    10    11    2
    35    11    12    1
    36    12    13    2
    37    37    38   ar
    38    38    34   ar
    39     6     1    1
    40    13     8    1
    41    20    15   ar
    42    25    21   ar
    43    13     5    1
    44    33    27   ar
    45     2    14    1
    46    25    26    1
@<TRIPOS>MOLECULE
*****
 40 46 0 0 0
SMALL
GASTEIGER

@<TRIPOS>ATOM
      1 C         141.5717  141.2061  160.3488 C.3     1  UNL1        0.1706
      2 N         142.0497  140.2859  159.2649 N.3     1  UNL1       -0.2797
      3 C         141.8683  138.8036  159.4055 C.3     1  UNL1        0.1167
      4 C         141.2089  138.2414  160.6299 C.3     1  UNL1        0.0511
      5 C         140.7309  139.1616  161.7138 C.2     1  UNL1       -0.0037
      6 C         140.9123  140.6439  161.5732 C.2     1  UNL1        0.0800
      7 N         140.3438  141.2985  162.7973 N.2     1  UNL1       -0.2519
      8 C         139.8111  140.2208  163.6943 C.2     1  UNL1        0.0627
      9 C         139.1391  140.2714  165.0344 C.3     1  UNL1        0.0717
     10 C         138.7063  139.0013  165.7048 C.2     1  UNL1       -0.0198
     11 C         138.9456  137.6806  165.0352 C.2     1  UNL1       -0.0042
     12 C         139.6176  137.6299  163.6951 C.2     1  UNL1        0.0006
     13 C         140.0503  138.9000  163.0247 C.2     1  UNL1        0.0111
     14 H         143.0505  140.4513  159.1584 H       1  UNL1        0.1246
     15 C         142.1327  142.2087  159.3845 C.ar    1  UNL1        0.0439
     16 C         143.4776  142.8663  159.4792 C.ar    1  UNL1        0.1194
     17 N         143.6233  143.7939  158.3094 N.ar    1  UNL1       -0.1679
     18 N         142.3686  143.7097  157.4918 N.ar    1  UNL1       -0.2476
     19 C         142.0849  144.4713  156.2311 C.3     1  UNL1        0.1537
     20 C         141.4473  142.7300  158.1563 C.ar    1  UNL1        0.0945
     21 C         142.3463  137.8833  158.3216 C.ar    1  UNL1        0.1319
     22 N         142.7330  136.4443  158.4938 N.ar    1  UNL1       -0.2282
     23 C         143.1472  135.9122  157.1539 C.ar    1  UNL1        0.1171
     24 C         143.0164  137.0223  156.1537 C.ar    1  UNL1        0.0942
     25 N         142.5214  138.2406  156.8753 N.ar    1  UNL1       -0.3385
     26 H         142.3429  139.1202  156.4708 H       1  UNL1        0.1672
     27 C         143.6108  134.5151  156.8650 C.ar    1  UNL1        0.1006
     28 C         143.3185  133.8881  155.5341 C.ar    1  UNL1        0.0230
     29 C         143.7820  132.4911  155.2451 C.ar    1  UNL1        0.0328
     30 C         144.5378  131.7211  156.2871 C.ar    1  UNL1        0.1592
     31 F         145.0014  130.3241  155.9983 F       1  UNL1       -0.2025
     32 C         144.8301  132.3482  157.6181 C.ar    1  UNL1        0.1284
     33 N         144.3666  133.7451  157.9070 N.ar    1  UNL1       -0.2399
     34 C         141.5006  144.3520  162.6211 C.ar    1  UNL1        0.2262
     35 N         140.2051  144.5005  161.8799 N.ar    1  UNL1       -0.1116
     36 N         140.0740  143.3401  160.9385 N.ar    1  UNL1       -0.1096
     37 C         141.2885  142.4745  161.0978 C.ar    1  UNL1        0.2478
     38 O         142.1702  143.0998  162.1378 O.2     1  UNL1       -0.4213
     39 C         143.4761  145.2225  164.0667 C.3     1  UNL1        0.0103
     40 C         142.0331  145.2908  163.6628 C.3     1  UNL1        0.0870
@<TRIPOS>BOND
     1    39    40    1
     2    40    34    1
     3    34    35   ar
     4    35    36   ar
     5    36    37   ar
     6     1    37    1
     7     1    15    1
     8    15    16   ar
     9    16    17   ar
    10    17    18   ar
    11    18    19    1
    12    18    20   ar
    13     1     2    1
    14     2     3    1
    15     3    21    1
    16    21    22   ar
    17    22    23   ar
    18    23    27    1
    19    27    28   ar
    20    28    29   ar
    21    29    30   ar
    22    30    31    1
    23    30    32   ar
    24    32    33   ar
    25    23    24   ar
    26    24    25   ar
    27     3     4    1
    28     4     5    1
    29     5     6    2
    30     6     7    1
    31     7     8    2
    32     8     9    1
    33     9    10    1
    34    10    11    2
    35    11    12    1
    36    12    13    2
    37    37    38   ar
    38    38    34   ar
    39     6     1    1
    40    13     8    1
    41    20    15   ar
    42    25    21   ar
    43    13     5    1
    44    33    27   ar
    45     2    14    1
    46    25    26    1
