@<TRIPOS>MOLECULE
*****
 41 44 0 0 0
SMALL
GASTEIGER

@<TRIPOS>ATOM
      1 C         139.3146  142.4540  158.6651 C.3     1  UNL1        0.0580
      2 C         139.5649  141.0513  158.1962 C.3     1  UNL1        0.0164
      3 C         139.3838  140.1317  159.3674 C.3     1  UNL1        0.0100
      4 C         139.0215  140.9662  160.5601 C.3     1  UNL1        0.0702
      5 C         138.9787  142.4014  160.1260 C.3     1  UNL1        0.0246
      6 C         139.5328  146.1678  156.1333 C.3     1  UNL1        0.0252
      7 C         140.1999  146.1354  157.4763 C.3     1  UNL1        0.0217
      8 C         140.1271  144.8975  158.3203 C.3     1  UNL1        0.0724
      9 N         139.3873  143.6919  157.8212 N.3     1  UNL1       -0.2739
     10 C         138.7202  143.7243  156.4780 C.3     1  UNL1        0.0724
     11 C         138.7929  144.9622  155.6341 C.3     1  UNL1        0.0217
     12 C         138.9553  149.8864  154.8730 C.ar    1  UNL1        0.1384
     13 C         139.7509  149.8816  153.6015 C.ar    1  UNL1        0.0369
     14 C         140.4738  148.6388  153.1738 C.ar    1  UNL1        0.0028
     15 C         140.4011  147.4009  154.0177 C.ar    1  UNL1       -0.0041
     16 C         139.6055  147.4057  155.2893 C.ar    1  UNL1       -0.0194
     17 C         138.8826  148.6485  155.7169 C.ar    1  UNL1        0.0326
     18 C         138.5117  152.4332  154.6141 C.3     1  UNL1        0.2525
     19 O         138.2323  151.1292  155.3007 O.3     1  UNL1       -0.4714
     20 C         138.6520  141.5250  161.9022 C.2     1  UNL1        0.2218
     21 O         137.2092  141.6326  162.2984 O.2     1  UNL1       -0.2751
     22 N         139.7252  141.9760  162.8481 N.am    1  UNL1       -0.3004
     23 H         140.6721  141.9054  162.5881 H       1  UNL1        0.1497
     24 C         139.3557  142.5348  164.1902 C.3     1  UNL1        0.1163
     25 C         139.4116  141.6605  165.4078 C.ar    1  UNL1       -0.0027
     26 C         140.1683  142.1124  166.6216 C.ar    1  UNL1        0.0012
     27 C         140.2242  141.2381  167.8390 C.ar    1  UNL1        0.0711
     28 C         139.5235  139.9117  167.8429 C.ar    1  UNL1        0.0077
     29 C         138.7669  139.4599  166.6291 C.ar    1  UNL1        0.0711
     30 C         138.7109  140.3342  165.4115 C.ar    1  UNL1        0.0012
     31 C         140.9809  141.6900  169.0528 C.3     1  UNL1        0.4186
     32 F         141.7375  142.1419  170.2666 F       1  UNL1       -0.1659
     33 F         142.1654  140.8801  168.6159 F       1  UNL1       -0.1659
     34 F         139.7963  142.4998  169.4898 F       1  UNL1       -0.1659
     35 C         138.0662  138.1336  166.6328 C.3     1  UNL1        0.4186
     36 F         137.3655  136.8073  166.6366 F       1  UNL1       -0.1659
     37 F         137.1988  138.5951  167.7662 F       1  UNL1       -0.1659
     38 F         138.9336  137.6721  165.4994 F       1  UNL1       -0.1659
     39 C         138.9870  139.6478  161.2747 C.3     1  UNL1        0.0082
     40 C         140.2357  139.1011  161.9005 C.3     1  UNL1        0.0005
     41 C         137.7037  138.8762  161.3635 C.3     1  UNL1        0.0005
@<TRIPOS>BOND
     1    18    19    1
     2    19    12    1
     3    12    13   ar
     4    13    14   ar
     5    14    15   ar
     6    15    16   ar
     7    16     6    1
     8     6     7    1
     9     7     8    1
    10     8     9    1
    11     1     9    1
    12     1     2    1
    13     2     3    1
    14     3     4    1
    15     4    20    1
    16    20    21    2
    17    20    22   am
    18    22    24    1
    19    24    25    1
    20    25    26   ar
    21    26    27   ar
    22    27    31    1
    23    31    32    1
    24    31    33    1
    25    31    34    1
    26    27    28   ar
    27    28    29   ar
    28    29    35    1
    29    35    36    1
    30    35    37    1
    31    35    38    1
    32    29    30   ar
    33     4    39    1
    34    39    40    1
    35    39    41    1
    36     4     5    1
    37     9    10    1
    38    10    11    1
    39    16    17   ar
    40    17    12   ar
    41    11     6    1
    42     5     1    1
    43    30    25   ar
    44    22    23    1
@<TRIPOS>MOLECULE
*****
 41 44 0 0 0
SMALL
GASTEIGER

@<TRIPOS>ATOM
      1 C         139.5057  142.5326  158.6597 C.3     1  UNL1        0.0580
      2 C         139.8736  141.1509  158.2063 C.3     1  UNL1        0.0164
      3 C         139.7001  140.2198  159.3695 C.3     1  UNL1        0.0100
      4 C         139.2249  141.0261  160.5418 C.3     1  UNL1        0.0702
      5 C         139.1048  142.4555  160.1030 C.3     1  UNL1        0.0246
      6 C         139.5900  146.2555  156.1332 C.3     1  UNL1        0.0252
      7 C         138.8309  145.0491  155.6661 C.3     1  UNL1        0.0217
      8 C         138.8028  143.8081  156.5082 C.3     1  UNL1        0.0724
      9 N         139.5338  143.7735  157.8175 N.3     1  UNL1       -0.2739
     10 C         140.2930  144.9800  158.2847 C.3     1  UNL1        0.0724
     11 C         140.3211  146.2209  157.4425 C.3     1  UNL1        0.0217
     12 C         138.9187  149.9683  154.9026 C.ar    1  UNL1        0.1384
     13 C         139.6743  149.9785  153.6069 C.ar    1  UNL1        0.0369
     14 C         140.4019  148.7476  153.1533 C.ar    1  UNL1        0.0028
     15 C         140.3738  147.5067  153.9954 C.ar    1  UNL1       -0.0041
     16 C         139.6182  147.4965  155.2911 C.ar    1  UNL1       -0.0194
     17 C         138.8906  148.7273  155.7447 C.ar    1  UNL1        0.0326
     18 C         138.5704  152.5410  154.8035 C.3     1  UNL1        0.2525
     19 O         138.1912  151.1991  155.3562 O.3     1  UNL1       -0.4714
     20 C         138.7543  141.5568  161.8635 C.2     1  UNL1        0.2218
     21 O         137.2954  141.5194  162.2102 O.2     1  UNL1       -0.2751
     22 N         139.7426  142.1249  162.8385 N.am    1  UNL1       -0.3004
     23 H         140.7001  142.1494  162.6109 H       1  UNL1        0.1497
     24 C         139.2720  142.6555  164.1602 C.3     1  UNL1        0.1163
     25 C         139.3520  141.7941  165.3856 C.ar    1  UNL1       -0.0027
     26 C         138.6951  140.4457  165.3987 C.ar    1  UNL1        0.0012
     27 C         138.7751  139.5844  166.6241 C.ar    1  UNL1        0.0711
     28 C         139.5120  140.0715  167.8365 C.ar    1  UNL1        0.0077
     29 C         140.1689  141.4200  167.8234 C.ar    1  UNL1        0.0711
     30 C         140.0888  142.2813  166.5979 C.ar    1  UNL1        0.0012
     31 C         138.1183  138.2359  166.6373 C.3     1  UNL1        0.4186
     32 F         137.4615  136.8874  166.6504 F       1  UNL1       -0.1659
     33 F         137.3240  138.6346  167.8456 F       1  UNL1       -0.1659
     34 F         138.9125  137.8372  165.4289 F       1  UNL1       -0.1659
     35 C         140.9057  141.9071  169.0357 C.3     1  UNL1        0.4186
     36 F         141.6426  142.3942  170.2480 F       1  UNL1       -0.1659
     37 F         141.3780  140.5101  169.3100 F       1  UNL1       -0.1659
     38 F         140.4334  143.3041  168.7614 F       1  UNL1       -0.1659
     39 C         139.2467  139.7077  161.2568 C.3     1  UNL1        0.0082
     40 C         138.0204  138.8441  161.2749 C.3     1  UNL1        0.0005
     41 C         140.4947  139.2529  161.9536 C.3     1  UNL1        0.0005
@<TRIPOS>BOND
     1    18    19    1
     2    19    12    1
     3    12    13   ar
     4    13    14   ar
     5    14    15   ar
     6    15    16   ar
     7    16     6    1
     8     6     7    1
     9     7     8    1
    10     8     9    1
    11     1     9    1
    12     1     2    1
    13     2     3    1
    14     3     4    1
    15     4    20    1
    16    20    21    2
    17    20    22   am
    18    22    24    1
    19    24    25    1
    20    25    26   ar
    21    26    27   ar
    22    27    31    1
    23    31    32    1
    24    31    33    1
    25    31    34    1
    26    27    28   ar
    27    28    29   ar
    28    29    35    1
    29    35    36    1
    30    35    37    1
    31    35    38    1
    32    29    30   ar
    33     4    39    1
    34    39    40    1
    35    39    41    1
    36     4     5    1
    37     9    10    1
    38    10    11    1
    39    16    17   ar
    40    17    12   ar
    41    11     6    1
    42     5     1    1
    43    30    25   ar
    44    22    23    1
@<TRIPOS>MOLECULE
*****
 41 44 0 0 0
SMALL
GASTEIGER

@<TRIPOS>ATOM
      1 C         143.3870  141.4691  161.2657 C.3     1  UNL1        0.0580
      2 C         144.0631  142.7703  160.9499 C.3     1  UNL1        0.0164
      3 C         144.1521  143.5662  162.2182 C.3     1  UNL1        0.0100
      4 C         143.5309  142.7569  163.3178 C.3     1  UNL1        0.0702
      5 C         143.0580  141.4608  162.7291 C.3     1  UNL1        0.0246
      6 C         142.5009  138.1695  158.3369 C.3     1  UNL1        0.0252
      7 C         142.3531  139.6026  157.9194 C.3     1  UNL1        0.0217
      8 C         142.6485  140.7025  158.8957 C.3     1  UNL1        0.0724
      9 N         143.0916  140.3692  160.2894 N.3     1  UNL1       -0.2739
     10 C         143.2394  138.9360  160.7069 C.3     1  UNL1        0.0724
     11 C         142.9440  137.8362  159.7307 C.3     1  UNL1        0.0217
     12 C         142.7386  134.7192  156.3904 C.ar    1  UNL1        0.1384
     13 C         141.6149  134.8698  155.4083 C.ar    1  UNL1        0.0369
     14 C         140.7866  136.1203  155.4023 C.ar    1  UNL1        0.0028
     15 C         141.0819  137.2202  156.3785 C.ar    1  UNL1       -0.0041
     16 C         142.2055  137.0696  157.3606 C.ar    1  UNL1       -0.0194
     17 C         143.0339  135.8190  157.3666 C.ar    1  UNL1        0.0326
     18 C         144.3964  133.1242  157.5977 C.3     1  UNL1        0.2525
     19 O         143.5669  133.4686  156.3964 O.3     1  UNL1       -0.4714
     20 C         142.9847  142.1940  164.5964 C.2     1  UNL1        0.2218
     21 O         141.8434  142.8774  165.2896 O.2     1  UNL1       -0.2751
     22 N         143.5797  140.9476  165.1818 N.am    1  UNL1       -0.3004
     23 H         144.3287  140.4991  164.7268 H       1  UNL1        0.1497
     24 C         143.0335  140.3847  166.4604 C.3     1  UNL1        0.1163
     25 C         141.6013  139.9449  166.5347 C.ar    1  UNL1       -0.0027
     26 C         140.8063  140.1863  167.7836 C.ar    1  UNL1        0.0012
     27 C         139.3743  139.7465  167.8579 C.ar    1  UNL1        0.0711
     28 C         138.7370  139.0652  166.6832 C.ar    1  UNL1        0.0077
     29 C         139.5319  138.8238  165.4343 C.ar    1  UNL1        0.0711
     30 C         140.9641  139.2636  165.3601 C.ar    1  UNL1        0.0012
     31 C         138.5794  139.9879  169.1068 C.3     1  UNL1        0.4186
     32 F         137.7844  140.2293  170.3557 F       1  UNL1       -0.1659
     33 F         139.6053  140.9802  169.5680 F       1  UNL1       -0.1659
     34 F         137.5533  138.9957  168.6456 F       1  UNL1       -0.1659
     35 C         138.8947  138.1425  164.2597 C.3     1  UNL1        0.4186
     36 F         138.2575  137.4612  163.0850 F       1  UNL1       -0.1659
     37 F         138.5314  136.9778  165.1322 F       1  UNL1       -0.1659
     38 F         139.2580  139.3072  163.3871 F       1  UNL1       -0.1659
     39 C         143.8895  143.9353  164.1738 C.3     1  UNL1        0.0082
     40 C         144.7551  143.7472  165.3843 C.3     1  UNL1        0.0005
     41 C         143.3827  145.3018  163.8192 C.3     1  UNL1        0.0005
@<TRIPOS>BOND
     1    18    19    1
     2    19    12    1
     3    12    13   ar
     4    13    14   ar
     5    14    15   ar
     6    15    16   ar
     7    16     6    1
     8     6     7    1
     9     7     8    1
    10     8     9    1
    11     1     9    1
    12     1     2    1
    13     2     3    1
    14     3     4    1
    15     4    20    1
    16    20    21    2
    17    20    22   am
    18    22    24    1
    19    24    25    1
    20    25    26   ar
    21    26    27   ar
    22    27    31    1
    23    31    32    1
    24    31    33    1
    25    31    34    1
    26    27    28   ar
    27    28    29   ar
    28    29    35    1
    29    35    36    1
    30    35    37    1
    31    35    38    1
    32    29    30   ar
    33     4    39    1
    34    39    40    1
    35    39    41    1
    36     4     5    1
    37     9    10    1
    38    10    11    1
    39    16    17   ar
    40    17    12   ar
    41    11     6    1
    42     5     1    1
    43    30    25   ar
    44    22    23    1
@<TRIPOS>MOLECULE
*****
 41 44 0 0 0
SMALL
GASTEIGER

@<TRIPOS>ATOM
      1 C         143.4255  141.5105  161.2852 C.3     1  UNL1        0.0580
      2 C         144.1131  142.8075  160.9769 C.3     1  UNL1        0.0164
      3 C         144.2158  143.5921  162.2512 C.3     1  UNL1        0.0100
      4 C         143.5916  142.7799  163.3471 C.3     1  UNL1        0.0702
      5 C         143.1032  141.4935  162.7501 C.3     1  UNL1        0.0246
      6 C         142.4932  138.2441  158.3337 C.3     1  UNL1        0.0252
      7 C         142.4922  137.9488  159.8043 C.3     1  UNL1        0.0217
      8 C         142.8030  139.0376  160.7882 C.3     1  UNL1        0.0724
      9 N         143.1148  140.4217  160.3014 N.3     1  UNL1       -0.2739
     10 C         143.1157  140.7171  158.8307 C.3     1  UNL1        0.0724
     11 C         142.8050  139.6283  157.8469 C.3     1  UNL1        0.0217
     12 C         142.7163  134.8275  156.3269 C.ar    1  UNL1        0.1384
     13 C         141.5611  134.9778  155.3821 C.ar    1  UNL1        0.0369
     14 C         140.7165  136.2168  155.4211 C.ar    1  UNL1        0.0028
     15 C         141.0272  137.3056  156.4049 C.ar    1  UNL1       -0.0041
     16 C         142.1825  137.1553  157.3498 C.ar    1  UNL1       -0.0194
     17 C         143.0270  135.9163  157.3108 C.ar    1  UNL1        0.0326
     18 C         142.9690  132.2650  156.6726 C.3     1  UNL1        0.2525
     19 O         143.5609  133.5885  156.2879 O.3     1  UNL1       -0.4714
     20 C         143.0458  142.2119  164.6236 C.2     1  UNL1        0.2218
     21 O         141.9141  142.9005  165.3273 O.2     1  UNL1       -0.2751
     22 N         143.6316  140.9554  165.1964 N.am    1  UNL1       -0.3004
     23 H         144.3743  140.5035  164.7345 H       1  UNL1        0.1497
     24 C         143.0857  140.3875  166.4728 C.3     1  UNL1        0.1163
     25 C         141.6611  139.9225  166.5380 C.ar    1  UNL1       -0.0027
     26 C         141.0544  139.1981  165.3730 C.ar    1  UNL1        0.0012
     27 C         139.6299  138.7332  165.4382 C.ar    1  UNL1        0.0711
     28 C         138.8118  138.9927  166.6684 C.ar    1  UNL1        0.0077
     29 C         139.4184  139.7170  167.8335 C.ar    1  UNL1        0.0711
     30 C         140.8430  140.1820  167.7682 C.ar    1  UNL1        0.0012
     31 C         139.0232  138.0089  164.2732 C.3     1  UNL1        0.4186
     32 F         138.4166  137.2845  163.1081 F       1  UNL1       -0.1659
     33 F         138.4179  137.0071  165.2112 F       1  UNL1       -0.1659
     34 F         139.6285  139.0106  163.3350 F       1  UNL1       -0.1659
     35 C         138.6004  139.9765  169.0637 C.3     1  UNL1        0.4186
     36 F         137.7823  140.2360  170.2939 F       1  UNL1       -0.1659
     37 F         137.5612  139.0108  168.5764 F       1  UNL1       -0.1659
     38 F         139.6395  140.9422  169.5510 F       1  UNL1       -0.1659
     39 C         143.9659  143.9477  164.2110 C.3     1  UNL1        0.0082
     40 C         144.8450  143.7429  165.4090 C.3     1  UNL1        0.0005
     41 C         143.4611  145.3201  163.8769 C.3     1  UNL1        0.0005
@<TRIPOS>BOND
     1    18    19    1
     2    19    12    1
     3    12    13   ar
     4    13    14   ar
     5    14    15   ar
     6    15    16   ar
     7    16     6    1
     8     6     7    1
     9     7     8    1
    10     8     9    1
    11     1     9    1
    12     1     2    1
    13     2     3    1
    14     3     4    1
    15     4    20    1
    16    20    21    2
    17    20    22   am
    18    22    24    1
    19    24    25    1
    20    25    26   ar
    21    26    27   ar
    22    27    31    1
    23    31    32    1
    24    31    33    1
    25    31    34    1
    26    27    28   ar
    27    28    29   ar
    28    29    35    1
    29    35    36    1
    30    35    37    1
    31    35    38    1
    32    29    30   ar
    33     4    39    1
    34    39    40    1
    35    39    41    1
    36     4     5    1
    37     9    10    1
    38    10    11    1
    39    16    17   ar
    40    17    12   ar
    41    11     6    1
    42     5     1    1
    43    30    25   ar
    44    22    23    1
@<TRIPOS>MOLECULE
*****
 41 44 0 0 0
SMALL
GASTEIGER

@<TRIPOS>ATOM
      1 C         143.6442  141.6513  161.0245 C.3     1  UNL1        0.0580
      2 C         144.6350  142.7774  161.0109 C.3     1  UNL1        0.0164
      3 C         144.5070  143.5231  162.3061 C.3     1  UNL1        0.0100
      4 C         143.4370  142.8578  163.1202 C.3     1  UNL1        0.0702
      5 C         142.9038  141.7010  162.3280 C.3     1  UNL1        0.0246
      6 C         143.0051  138.6507  157.7323 C.3     1  UNL1        0.0252
      7 C         142.5619  138.3360  159.1304 C.3     1  UNL1        0.0217
      8 C         142.7750  139.3362  160.2278 C.3     1  UNL1        0.0724
      9 N         143.4311  140.6511  159.9271 N.3     1  UNL1       -0.2739
     10 C         143.8743  140.9658  158.5290 C.3     1  UNL1        0.0724
     11 C         143.6612  139.9656  157.4317 C.3     1  UNL1        0.0217
     12 C         142.3910  135.2000  155.8708 C.ar    1  UNL1        0.1384
     13 C         142.3660  135.6501  154.4402 C.ar    1  UNL1        0.0369
     14 C         142.5540  137.1005  154.1070 C.ar    1  UNL1        0.0028
     15 C         142.7670  138.1007  155.2043 C.ar    1  UNL1       -0.0041
     16 C         142.7920  137.6505  156.6349 C.ar    1  UNL1       -0.0194
     17 C         142.6040  136.2001  156.9682 C.ar    1  UNL1        0.0326
     18 C         141.4790  132.8482  155.2484 C.3     1  UNL1        0.2525
     19 O         142.2029  133.7496  156.2041 O.3     1  UNL1       -0.4714
     20 C         142.4348  142.4150  164.1446 C.2     1  UNL1        0.2218
     21 O         141.1319  143.1452  164.2836 O.2     1  UNL1       -0.2751
     22 N         142.7355  141.2421  165.0300 N.am    1  UNL1       -0.3004
     23 H         143.5906  140.7629  164.9388 H       1  UNL1        0.1497
     24 C         141.7332  140.7994  166.0544 C.3     1  UNL1        0.1163
     25 C         140.6131  139.8828  165.6605 C.ar    1  UNL1       -0.0027
     26 C         139.6147  139.4344  166.6863 C.ar    1  UNL1        0.0012
     27 C         138.4947  138.5178  166.2923 C.ar    1  UNL1        0.0711
     28 C         138.3729  138.0495  164.8724 C.ar    1  UNL1        0.0077
     29 C         139.3713  138.4979  163.8466 C.ar    1  UNL1        0.0711
     30 C         140.4914  139.4145  164.2407 C.ar    1  UNL1        0.0012
     31 C         137.4964  138.0695  167.3181 C.3     1  UNL1        0.4186
     32 F         136.4980  137.6211  168.3439 F       1  UNL1       -0.1659
     33 F         137.2868  136.7942  166.5567 F       1  UNL1       -0.1659
     34 F         137.7059  139.3447  168.0795 F       1  UNL1       -0.1659
     35 C         139.2496  138.0296  162.4268 C.3     1  UNL1        0.4186
     36 F         139.1278  137.5613  161.0070 F       1  UNL1       -0.1659
     37 F         137.8564  138.5820  162.3641 F       1  UNL1       -0.1659
     38 F         140.6427  137.4772  162.4895 F       1  UNL1       -0.1659
     39 C         143.7608  143.9220  164.1264 C.3     1  UNL1        0.0082
     40 C         143.2858  145.3282  163.9099 C.3     1  UNL1        0.0005
     41 C         144.5595  143.5801  165.3492 C.3     1  UNL1        0.0005
@<TRIPOS>BOND
     1    18    19    1
     2    19    12    1
     3    12    13   ar
     4    13    14   ar
     5    14    15   ar
     6    15    16   ar
     7    16     6    1
     8     6     7    1
     9     7     8    1
    10     8     9    1
    11     1     9    1
    12     1     2    1
    13     2     3    1
    14     3     4    1
    15     4    20    1
    16    20    21    2
    17    20    22   am
    18    22    24    1
    19    24    25    1
    20    25    26   ar
    21    26    27   ar
    22    27    31    1
    23    31    32    1
    24    31    33    1
    25    31    34    1
    26    27    28   ar
    27    28    29   ar
    28    29    35    1
    29    35    36    1
    30    35    37    1
    31    35    38    1
    32    29    30   ar
    33     4    39    1
    34    39    40    1
    35    39    41    1
    36     4     5    1
    37     9    10    1
    38    10    11    1
    39    16    17   ar
    40    17    12   ar
    41    11     6    1
    42     5     1    1
    43    30    25   ar
    44    22    23    1
@<TRIPOS>MOLECULE
*****
 41 44 0 0 0
SMALL
GASTEIGER

@<TRIPOS>ATOM
      1 C         141.8424  141.2275  158.8957 C.3     1  UNL1        0.0580
      2 C         142.6565  142.4605  158.6366 C.3     1  UNL1        0.0164
      3 C         142.0932  143.5719  159.4716 C.3     1  UNL1        0.0100
      4 C         140.9309  143.0259  160.2468 C.3     1  UNL1        0.0702
      5 C         140.7759  141.5770  159.8909 C.3     1  UNL1        0.0246
      6 C         142.4866  137.1894  157.0173 C.3     1  UNL1        0.0252
      7 C         142.1471  138.3708  156.1577 C.3     1  UNL1        0.0217
      8 C         141.9324  139.7169  156.7838 C.3     1  UNL1        0.0724
      9 N         142.0572  139.8815  158.2695 N.3     1  UNL1       -0.2739
     10 C         142.3967  138.7000  159.1291 C.3     1  UNL1        0.0724
     11 C         142.6114  137.3540  158.5030 C.3     1  UNL1        0.0217
     12 C         143.4151  133.3537  156.5979 C.ar    1  UNL1        0.1384
     13 C         143.1308  133.1512  155.1391 C.ar    1  UNL1        0.0369
     14 C         142.6318  134.2946  154.3064 C.ar    1  UNL1        0.0028
     15 C         142.4171  135.6407  154.9324 C.ar    1  UNL1       -0.0041
     16 C         142.7013  135.8433  156.3912 C.ar    1  UNL1       -0.0194
     17 C         143.2003  134.6998  157.2239 C.ar    1  UNL1        0.0326
     18 C         145.2866  132.2642  158.0333 C.3     1  UNL1        0.2525
     19 O         143.9140  132.2103  157.4307 O.3     1  UNL1       -0.4714
     20 C         139.7493  142.7716  161.1353 C.2     1  UNL1        0.2218
     21 O         138.3741  143.1677  160.6860 O.2     1  UNL1       -0.2751
     22 N         139.9430  142.1214  162.4731 N.am    1  UNL1       -0.3004
     23 H         140.8456  141.8614  162.7680 H       1  UNL1        0.1497
     24 C         138.7615  141.8671  163.3615 C.3     1  UNL1        0.1163
     25 C         138.9575  141.2335  164.7069 C.ar    1  UNL1       -0.0027
     26 C         138.3527  139.8924  164.9997 C.ar    1  UNL1        0.0012
     27 C         138.5487  139.2589  166.3451 C.ar    1  UNL1        0.0711
     28 C         139.3495  139.9664  167.3978 C.ar    1  UNL1        0.0077
     29 C         139.9543  141.3075  167.1051 C.ar    1  UNL1        0.0711
     30 C         139.7582  141.9410  165.7596 C.ar    1  UNL1        0.0012
     31 C         137.9440  137.9178  166.6378 C.3     1  UNL1        0.4186
     32 F         137.3392  136.5767  166.9306 F       1  UNL1       -0.1659
     33 F         138.7544  137.3108  165.5312 F       1  UNL1       -0.1659
     34 F         137.1335  138.5247  167.7445 F       1  UNL1       -0.1659
     35 C         140.7550  142.0150  168.1578 C.3     1  UNL1        0.4186
     36 F         141.5558  142.7226  169.2104 F       1  UNL1       -0.1659
     37 F         140.2887  143.3370  167.6239 F       1  UNL1       -0.1659
     38 F         141.2213  140.6931  168.6916 F       1  UNL1       -0.1659
     39 C         140.8388  144.4216  160.7885 C.3     1  UNL1        0.0082
     40 C         140.3971  145.5443  159.8972 C.3     1  UNL1        0.0005
     41 C         141.1885  144.6946  162.2214 C.3     1  UNL1        0.0005
@<TRIPOS>BOND
     1    18    19    1
     2    19    12    1
     3    12    13   ar
     4    13    14   ar
     5    14    15   ar
     6    15    16   ar
     7    16     6    1
     8     6     7    1
     9     7     8    1
    10     8     9    1
    11     1     9    1
    12     1     2    1
    13     2     3    1
    14     3     4    1
    15     4    20    1
    16    20    21    2
    17    20    22   am
    18    22    24    1
    19    24    25    1
    20    25    26   ar
    21    26    27   ar
    22    27    31    1
    23    31    32    1
    24    31    33    1
    25    31    34    1
    26    27    28   ar
    27    28    29   ar
    28    29    35    1
    29    35    36    1
    30    35    37    1
    31    35    38    1
    32    29    30   ar
    33     4    39    1
    34    39    40    1
    35    39    41    1
    36     4     5    1
    37     9    10    1
    38    10    11    1
    39    16    17   ar
    40    17    12   ar
    41    11     6    1
    42     5     1    1
    43    30    25   ar
    44    22    23    1
@<TRIPOS>MOLECULE
*****
 41 44 0 0 0
SMALL
GASTEIGER

@<TRIPOS>ATOM
      1 C         141.9332  141.1360  158.9123 C.3     1  UNL1        0.0580
      2 C         142.8335  142.3128  158.6787 C.3     1  UNL1        0.0164
      3 C         142.3448  143.4466  159.5305 C.3     1  UNL1        0.0100
      4 C         141.1423  142.9705  160.2905 C.3     1  UNL1        0.0702
      5 C         140.8880  141.5425  159.9084 C.3     1  UNL1        0.0246
      6 C         142.3028  137.0955  156.9661 C.3     1  UNL1        0.0252
      7 C         142.6499  137.2643  158.4155 C.3     1  UNL1        0.0217
      8 C         142.5267  138.6112  159.0643 C.3     1  UNL1        0.0724
      9 N         142.0564  139.7891  158.2636 N.3     1  UNL1       -0.2739
     10 C         141.7092  139.6202  156.8140 C.3     1  UNL1        0.0724
     11 C         141.8324  138.2734  156.1654 C.3     1  UNL1        0.0217
     12 C         143.6564  133.4735  156.0718 C.ar    1  UNL1        0.1384
     13 C         142.6724  133.0550  155.0199 C.ar    1  UNL1        0.0369
     14 C         141.5653  133.9832  154.6167 C.ar    1  UNL1        0.0028
     15 C         141.4420  135.3300  155.2654 C.ar    1  UNL1       -0.0041
     16 C         142.4260  135.7486  156.3173 C.ar    1  UNL1       -0.0194
     17 C         143.5331  134.8204  156.7206 C.ar    1  UNL1        0.0326
     18 C         145.1607  132.4335  157.9172 C.3     1  UNL1        0.2525
     19 O         144.7635  132.5453  156.4751 O.3     1  UNL1       -0.4714
     20 C         139.9406  142.7848  161.1688 C.2     1  UNL1        0.2218
     21 O         138.6174  143.3618  160.7611 O.2     1  UNL1       -0.2751
     22 N         140.0621  142.0223  162.4548 N.am    1  UNL1       -0.3004
     23 H         140.9306  141.6436  162.7224 H       1  UNL1        0.1497
     24 C         138.8604  141.8367  163.3331 C.3     1  UNL1        0.1163
     25 C         139.0124  141.2182  164.6912 C.ar    1  UNL1       -0.0027
     26 C         139.7793  141.9371  165.7612 C.ar    1  UNL1        0.0012
     27 C         139.9313  141.3186  167.1192 C.ar    1  UNL1        0.0711
     28 C         139.3164  139.9810  167.4073 C.ar    1  UNL1        0.0077
     29 C         138.5495  139.2621  166.3373 C.ar    1  UNL1        0.0711
     30 C         138.3975  139.8807  164.9792 C.ar    1  UNL1        0.0012
     31 C         140.6982  142.0375  168.1892 C.3     1  UNL1        0.4186
     32 F         141.4651  142.7565  169.2593 F       1  UNL1       -0.1659
     33 F         141.1103  140.7211  168.7784 F       1  UNL1       -0.1659
     34 F         140.2862  143.3540  167.6001 F       1  UNL1       -0.1659
     35 C         137.9346  137.9246  166.6253 C.3     1  UNL1        0.4186
     36 F         137.3197  136.5871  166.9133 F       1  UNL1       -0.1659
     37 F         138.7124  137.3231  165.4926 F       1  UNL1       -0.1659
     38 F         137.1568  138.5261  167.7580 F       1  UNL1       -0.1659
     39 C         141.1455  144.3597  160.8562 C.3     1  UNL1        0.0082
     40 C         140.6078  145.5010  160.0450 C.3     1  UNL1        0.0005
     41 C         141.6864  144.6076  162.2332 C.3     1  UNL1        0.0005
@<TRIPOS>BOND
     1    18    19    1
     2    19    12    1
     3    12    13   ar
     4    13    14   ar
     5    14    15   ar
     6    15    16   ar
     7    16     6    1
     8     6     7    1
     9     7     8    1
    10     8     9    1
    11     1     9    1
    12     1     2    1
    13     2     3    1
    14     3     4    1
    15     4    20    1
    16    20    21    2
    17    20    22   am
    18    22    24    1
    19    24    25    1
    20    25    26   ar
    21    26    27   ar
    22    27    31    1
    23    31    32    1
    24    31    33    1
    25    31    34    1
    26    27    28   ar
    27    28    29   ar
    28    29    35    1
    29    35    36    1
    30    35    37    1
    31    35    38    1
    32    29    30   ar
    33     4    39    1
    34    39    40    1
    35    39    41    1
    36     4     5    1
    37     9    10    1
    38    10    11    1
    39    16    17   ar
    40    17    12   ar
    41    11     6    1
    42     5     1    1
    43    30    25   ar
    44    22    23    1
@<TRIPOS>MOLECULE
*****
 41 44 0 0 0
SMALL
GASTEIGER

@<TRIPOS>ATOM
      1 C         142.6262  141.4992  160.4921 C.3     1  UNL1        0.0580
      2 C         142.2064  142.9061  160.1849 C.3     1  UNL1        0.0164
      3 C         142.3073  143.7066  161.4494 C.3     1  UNL1        0.0100
      4 C         142.7895  142.7944  162.5382 C.3     1  UNL1        0.0702
      5 C         142.9865  141.4301  161.9465 C.3     1  UNL1        0.0246
      6 C         142.7779  138.0851  157.5645 C.3     1  UNL1        0.0252
      7 C         142.5545  137.8133  159.0227 C.3     1  UNL1        0.0217
      8 C         142.5039  138.9514  159.9986 C.3     1  UNL1        0.0724
      9 N         142.6768  140.3612  159.5163 N.3     1  UNL1       -0.2739
     10 C         142.9002  140.6329  158.0581 C.3     1  UNL1        0.0724
     11 C         142.9507  139.4949  157.0822 C.3     1  UNL1        0.0217
     12 C         143.3554  134.4586  156.0595 C.ar    1  UNL1        0.1384
     13 C         142.9296  134.6709  154.6370 C.ar    1  UNL1        0.0369
     14 C         142.4532  136.0213  154.1903 C.ar    1  UNL1        0.0028
     15 C         142.4027  137.1593  155.1661 C.ar    1  UNL1       -0.0041
     16 C         142.8285  136.9470  156.5886 C.ar    1  UNL1       -0.0194
     17 C         143.3049  135.5966  157.0353 C.ar    1  UNL1        0.0326
     18 C         144.5722  132.9652  157.8028 C.3     1  UNL1        0.2525
     19 O         143.8318  133.1082  156.5062 O.3     1  UNL1       -0.4714
     20 C         143.2506  142.1387  163.8060 C.2     1  UNL1        0.2218
     21 O         144.5207  142.5894  164.4644 O.2     1  UNL1       -0.2751
     22 N         142.4415  141.0324  164.4155 N.am    1  UNL1       -0.3004
     23 H         141.6078  140.7366  163.9834 H       1  UNL1        0.1497
     24 C         142.9025  140.3768  165.6834 C.3     1  UNL1        0.1163
     25 C         142.2761  140.7535  166.9933 C.ar    1  UNL1       -0.0027
     26 C         142.9910  141.6855  167.9261 C.ar    1  UNL1        0.0012
     27 C         142.3646  142.0622  169.2359 C.ar    1  UNL1        0.0711
     28 C         141.0231  141.5069  169.6129 C.ar    1  UNL1        0.0077
     29 C         140.3081  140.5749  168.6801 C.ar    1  UNL1        0.0711
     30 C         140.9347  140.1982  167.3703 C.ar    1  UNL1        0.0012
     31 C         143.0795  142.9942  170.1687 C.3     1  UNL1        0.4186
     32 F         143.7945  143.9262  171.1016 F       1  UNL1       -0.1659
     33 F         144.3454  142.2118  169.9803 F       1  UNL1       -0.1659
     34 F         141.8138  143.7766  170.3573 F       1  UNL1       -0.1659
     35 C         138.9667  140.0196  169.0571 C.3     1  UNL1        0.4186
     36 F         137.6253  139.4642  169.4340 F       1  UNL1       -0.1659
     37 F         139.0658  140.6889  170.3958 F       1  UNL1       -0.1659
     38 F         138.8676  139.3502  167.7184 F       1  UNL1       -0.1659
     39 C         142.6888  144.0215  163.3948 C.3     1  UNL1        0.0082
     40 C         141.5520  144.1697  164.3622 C.3     1  UNL1        0.0005
     41 C         143.7248  145.1006  163.2841 C.3     1  UNL1        0.0005
@<TRIPOS>BOND
     1    18    19    1
     2    19    12    1
     3    12    13   ar
     4    13    14   ar
     5    14    15   ar
     6    15    16   ar
     7    16     6    1
     8     6     7    1
     9     7     8    1
    10     8     9    1
    11     1     9    1
    12     1     2    1
    13     2     3    1
    14     3     4    1
    15     4    20    1
    16    20    21    2
    17    20    22   am
    18    22    24    1
    19    24    25    1
    20    25    26   ar
    21    26    27   ar
    22    27    31    1
    23    31    32    1
    24    31    33    1
    25    31    34    1
    26    27    28   ar
    27    28    29   ar
    28    29    35    1
    29    35    36    1
    30    35    37    1
    31    35    38    1
    32    29    30   ar
    33     4    39    1
    34    39    40    1
    35    39    41    1
    36     4     5    1
    37     9    10    1
    38    10    11    1
    39    16    17   ar
    40    17    12   ar
    41    11     6    1
    42     5     1    1
    43    30    25   ar
    44    22    23    1
@<TRIPOS>MOLECULE
*****
 41 44 0 0 0
SMALL
GASTEIGER

@<TRIPOS>ATOM
      1 C         143.3024  139.7754  158.8398 C.3     1  UNL1        0.0580
      2 C         142.5945  138.4711  158.6209 C.3     1  UNL1        0.0164
      3 C         141.7422  138.1985  159.8247 C.3     1  UNL1        0.0100
      4 C         141.9232  139.3344  160.7876 C.3     1  UNL1        0.0702
      5 C         142.8875  140.3089  160.1789 C.3     1  UNL1        0.0246
      6 C         146.1675  141.7424  155.9811 C.3     1  UNL1        0.0252
      7 C         145.5200  140.4395  155.6162 C.3     1  UNL1        0.0217
      8 C         144.5649  139.7837  156.5691 C.3     1  UNL1        0.0724
      9 N         144.2574  140.4310  157.8869 N.3     1  UNL1       -0.2739
     10 C         144.9049  141.7340  158.2517 C.3     1  UNL1        0.0724
     11 C         145.8599  142.3897  157.2988 C.3     1  UNL1        0.0217
     12 C         149.4475  142.4778  153.8715 C.ar    1  UNL1        0.1384
     13 C         149.0327  143.7094  153.1225 C.ar    1  UNL1        0.0369
     14 C         147.6627  144.2853  153.3263 C.ar    1  UNL1        0.0028
     15 C         146.7077  143.6297  154.2792 C.ar    1  UNL1       -0.0041
     16 C         147.1225  142.3981  155.0282 C.ar    1  UNL1       -0.0194
     17 C         148.4925  141.8222  154.8243 C.ar    1  UNL1        0.0326
     18 C         152.0059  142.5449  154.3189 C.3     1  UNL1        0.2525
     19 O         150.8175  141.9019  153.6677 O.3     1  UNL1       -0.4714
     20 C         141.9018  140.3090  161.9276 C.2     1  UNL1        0.2218
     21 O         143.0812  140.4120  162.8486 O.2     1  UNL1       -0.2751
     22 N         140.7008  141.1807  162.1466 N.am    1  UNL1       -0.3004
     23 H         139.9267  141.1131  161.5421 H       1  UNL1        0.1497
     24 C         140.6794  142.1553  163.2866 C.3     1  UNL1        0.1163
     25 C         140.3938  141.6750  164.6787 C.ar    1  UNL1       -0.0027
     26 C         141.0080  142.3751  165.8545 C.ar    1  UNL1        0.0012
     27 C         140.7224  141.8947  167.2464 C.ar    1  UNL1        0.0711
     28 C         139.8225  140.7142  167.4626 C.ar    1  UNL1        0.0077
     29 C         139.2083  140.0141  166.2868 C.ar    1  UNL1        0.0711
     30 C         139.4939  140.4945  164.8948 C.ar    1  UNL1        0.0012
     31 C         141.3366  142.5948  168.4223 C.3     1  UNL1        0.4186
     32 F         141.9508  143.2949  169.5981 F       1  UNL1       -0.1659
     33 F         142.5229  141.6799  168.3473 F       1  UNL1       -0.1659
     34 F         140.1503  143.5097  168.4973 F       1  UNL1       -0.1659
     35 C         138.3084  138.8336  166.5030 C.3     1  UNL1        0.4186
     36 F         137.4086  137.6532  166.7191 F       1  UNL1       -0.1659
     37 F         138.1465  139.2207  167.9431 F       1  UNL1       -0.1659
     38 F         138.4703  138.4465  165.0629 F       1  UNL1       -0.1659
     39 C         140.9545  138.5636  161.6346 C.3     1  UNL1        0.0082
     40 C         139.5085  138.4909  161.2427 C.3     1  UNL1        0.0005
     41 C         141.4319  137.8655  162.8735 C.3     1  UNL1        0.0005
@<TRIPOS>BOND
     1    18    19    1
     2    19    12    1
     3    12    13   ar
     4    13    14   ar
     5    14    15   ar
     6    15    16   ar
     7    16     6    1
     8     6     7    1
     9     7     8    1
    10     8     9    1
    11     1     9    1
    12     1     2    1
    13     2     3    1
    14     3     4    1
    15     4    20    1
    16    20    21    2
    17    20    22   am
    18    22    24    1
    19    24    25    1
    20    25    26   ar
    21    26    27   ar
    22    27    31    1
    23    31    32    1
    24    31    33    1
    25    31    34    1
    26    27    28   ar
    27    28    29   ar
    28    29    35    1
    29    35    36    1
    30    35    37    1
    31    35    38    1
    32    29    30   ar
    33     4    39    1
    34    39    40    1
    35    39    41    1
    36     4     5    1
    37     9    10    1
    38    10    11    1
    39    16    17   ar
    40    17    12   ar
    41    11     6    1
    42     5     1    1
    43    30    25   ar
    44    22    23    1
