@<TRIPOS>MOLECULE
*****
 33 35 0 0 0
SMALL
GASTEIGER

@<TRIPOS>ATOM
      1 C         138.6509  141.7642  164.8967 C.3     1  UNL1        0.1688
      2 C         137.7881  141.8562  163.6731 C.3     1  UNL1        0.0609
      3 C         137.8120  143.0965  162.8299 C.3     1  UNL1        0.0758
      4 N         138.6988  144.2450  163.2103 N.3     1  UNL1       -0.2724
      5 C         139.5616  144.1531  164.4339 C.3     1  UNL1        0.0758
      6 C         139.5376  142.9127  165.2771 C.3     1  UNL1        0.0609
      7 O         138.6269  140.5239  165.7398 O.3     1  UNL1       -0.4776
      8 C         140.7947  140.0803  169.0343 C.ar    1  UNL1       -0.0191
      9 C         139.6411  140.3936  168.1282 C.ar    1  UNL1        0.0342
     10 C         139.7804  140.2105  166.6460 C.ar    1  UNL1        0.1555
     11 C         141.0734  139.7140  166.0698 C.ar    1  UNL1        0.1151
     12 N         141.2127  139.5309  164.5876 N.ar    1  UNL1       -0.2408
     13 C         142.5056  139.0345  164.0115 C.ar    1  UNL1        0.0989
     14 C         143.6592  138.7211  164.9177 C.ar    1  UNL1        0.0207
     15 C         143.5198  138.9042  166.3999 C.ar    1  UNL1        0.0032
     16 C         142.2270  139.4007  166.9760 C.ar    1  UNL1        0.0204
     17 C         142.0876  139.5838  168.4583 C.ar    1  UNL1       -0.0026
     18 C         140.6553  140.2634  170.5166 C.3     1  UNL1        0.0265
     19 C         140.9594  141.5935  171.1398 C.3     1  UNL1        0.0047
     20 C         140.4854  143.7621  169.7898 C.3     1  UNL1        0.0000
     21 C         141.4495  142.7265  170.2878 C.3     1  UNL1        0.0003
     22 C         138.7228  145.4853  162.3672 C.3     1  UNL1        0.0721
     23 C         140.0336  146.0793  161.9440 C.3     1  UNL1        0.0188
     24 C         140.8766  145.3818  160.9180 C.3     1  UNL1        0.0202
     25 C         141.8325  144.3052  161.3389 C.3     1  UNL1        0.0911
     26 N         143.0835  144.6628  162.0854 N.3     1  UNL1       -0.1834
     27 H         142.9036  145.5513  162.5530 H       1  UNL1        0.1484
     28 S         143.6295  143.7292  163.1248 S.O2    1  UNL1        0.0390
     29 O         144.2565  142.8958  162.0468 O.2     1  UNL1       -0.1576
     30 O         143.0024  144.5627  164.2028 O.2     1  UNL1       -0.1576
     31 C         144.1754  142.7956  164.1642 C.3     1  UNL1        0.1457
     32 C         145.4164  142.0019  163.8818 C.3     1  UNL1        0.0270
     33 C         143.4803  142.6558  165.4861 C.3     1  UNL1        0.0270
@<TRIPOS>BOND
     1    20    21    1
     2    21    19    1
     3    19    18    1
     4    18     8    1
     5     8     9   ar
     6     9    10   ar
     7    10     7    1
     8     7     1    1
     9     1     2    1
    10     2     3    1
    11     3     4    1
    12     4    22    1
    13    22    23    1
    14    23    24    1
    15    24    25    1
    16    25    26    1
    17    26    28    1
    18    28    29    2
    19    28    30    2
    20    28    31    1
    21    31    32    1
    22    31    33    1
    23     4     5    1
    24     5     6    1
    25    10    11   ar
    26    11    12   ar
    27    12    13   ar
    28    13    14   ar
    29    14    15   ar
    30    15    16   ar
    31    16    17   ar
    32    17     8   ar
    33     6     1    1
    34    16    11   ar
    35    26    27    1
@<TRIPOS>MOLECULE
*****
 33 35 0 0 0
SMALL
GASTEIGER

@<TRIPOS>ATOM
      1 C         141.4365  138.3466  164.6813 C.3     1  UNL1        0.1688
      2 C         140.0341  138.4992  165.1913 C.3     1  UNL1        0.0609
      3 C         138.8731  138.3182  164.2589 C.3     1  UNL1        0.0758
      4 N         139.1145  137.9847  162.8165 N.3     1  UNL1       -0.2724
      5 C         140.5168  137.8321  162.3065 C.3     1  UNL1        0.0758
      6 C         141.6779  138.0131  163.2389 C.3     1  UNL1        0.0609
      7 O         142.5974  138.5276  165.6137 O.3     1  UNL1       -0.4776
      8 C         142.9081  141.4593  168.2705 C.ar    1  UNL1       -0.0191
      9 C         142.6294  140.1123  167.6723 C.ar    1  UNL1        0.0342
     10 C         142.8761  139.8746  166.2119 C.ar    1  UNL1        0.1555
     11 C         143.4013  140.9841  165.3497 C.ar    1  UNL1        0.1151
     12 N         143.6479  140.7464  163.8893 N.ar    1  UNL1       -0.2408
     13 C         144.1732  141.8558  163.0272 C.ar    1  UNL1        0.0989
     14 C         144.4518  143.2028  163.6254 C.ar    1  UNL1        0.0207
     15 C         144.2052  143.4405  165.0857 C.ar    1  UNL1        0.0032
     16 C         143.6799  142.3311  165.9479 C.ar    1  UNL1        0.0204
     17 C         143.4333  142.5687  167.4083 C.ar    1  UNL1       -0.0026
     18 C         142.6614  141.6970  169.7309 C.3     1  UNL1        0.0265
     19 C         142.2678  143.0619  170.2126 C.3     1  UNL1        0.0047
     20 C         139.6983  142.7146  170.3769 C.3     1  UNL1        0.0000
     21 C         140.8722  143.5632  169.9873 C.3     1  UNL1        0.0003
     22 C         137.9536  137.8037  161.8841 C.3     1  UNL1        0.0721
     23 C         137.3989  138.9818  161.1394 C.3     1  UNL1        0.0188
     24 C         137.8647  140.3677  161.4743 C.3     1  UNL1        0.0202
     25 C         137.3100  141.0758  162.6747 C.3     1  UNL1        0.0911
     26 N         137.4768  142.5601  162.8134 N.3     1  UNL1       -0.1834
     27 H         136.5396  142.9627  162.8165 H       1  UNL1        0.1484
     28 S         138.1951  143.1261  164.0023 S.O2    1  UNL1        0.0390
     29 O         138.2233  144.4735  163.3438 O.2     1  UNL1       -0.1576
     30 O         138.1669  141.7788  164.6609 O.2     1  UNL1       -0.1576
     31 C         138.9135  143.6922  165.1913 C.3     1  UNL1        0.1457
     32 C         138.5559  145.0556  165.7045 C.3     1  UNL1        0.0270
     33 C         139.9894  142.8949  165.8671 C.3     1  UNL1        0.0270
@<TRIPOS>BOND
     1    20    21    1
     2    21    19    1
     3    19    18    1
     4    18     8    1
     5     8     9   ar
     6     9    10   ar
     7    10     7    1
     8     7     1    1
     9     1     2    1
    10     2     3    1
    11     3     4    1
    12     4    22    1
    13    22    23    1
    14    23    24    1
    15    24    25    1
    16    25    26    1
    17    26    28    1
    18    28    29    2
    19    28    30    2
    20    28    31    1
    21    31    32    1
    22    31    33    1
    23     4     5    1
    24     5     6    1
    25    10    11   ar
    26    11    12   ar
    27    12    13   ar
    28    13    14   ar
    29    14    15   ar
    30    15    16   ar
    31    16    17   ar
    32    17     8   ar
    33     6     1    1
    34    16    11   ar
    35    26    27    1
@<TRIPOS>MOLECULE
*****
 33 35 0 0 0
SMALL
GASTEIGER

@<TRIPOS>ATOM
      1 C         140.8296  138.6233  164.9477 C.3     1  UNL1        0.1688
      2 C         141.1049  137.8682  163.6811 C.3     1  UNL1        0.0609
      3 C         140.0629  137.8050  162.6040 C.3     1  UNL1        0.0758
      4 N         138.7455  138.4969  162.7934 N.3     1  UNL1       -0.2724
      5 C         138.4702  139.2520  164.0599 C.3     1  UNL1        0.0758
      6 C         139.5123  139.3152  165.1371 C.3     1  UNL1        0.0609
      7 O         141.8717  138.6865  166.0247 O.3     1  UNL1       -0.4776
      8 C         143.7606  142.1725  165.8514 C.ar    1  UNL1       -0.0191
      9 C         143.1871  140.8491  165.4393 C.ar    1  UNL1        0.0342
     10 C         142.4451  140.0099  166.4368 C.ar    1  UNL1        0.1555
     11 C         142.2765  140.4941  167.8465 C.ar    1  UNL1        0.1151
     12 N         141.5344  139.6549  168.8440 N.ar    1  UNL1       -0.2408
     13 C         141.3658  140.1391  170.2537 C.ar    1  UNL1        0.0989
     14 C         141.9393  141.4625  170.6657 C.ar    1  UNL1        0.0207
     15 C         142.6813  142.3017  169.6682 C.ar    1  UNL1        0.0032
     16 C         142.8499  141.8175  168.2586 C.ar    1  UNL1        0.0204
     17 C         143.5920  142.6567  167.2610 C.ar    1  UNL1       -0.0026
     18 C         144.5026  143.0117  164.8537 C.3     1  UNL1        0.0265
     19 C         143.7885  143.5547  163.6516 C.3     1  UNL1        0.0047
     20 C         142.0707  145.5022  163.7333 C.3     1  UNL1        0.0000
     21 C         143.4805  145.0199  163.5606 C.3     1  UNL1        0.0003
     22 C         137.7035  138.4337  161.7164 C.3     1  UNL1        0.0721
     23 C         137.6110  139.5303  160.6970 C.3     1  UNL1        0.0188
     24 C         138.4690  140.7533  160.8311 C.3     1  UNL1        0.0202
     25 C         137.9541  141.9533  161.5693 C.3     1  UNL1        0.0911
     26 N         138.9029  143.0315  162.0024 N.3     1  UNL1       -0.1834
     27 H         138.6157  143.8857  161.5248 H       1  UNL1        0.1484
     28 S         139.0369  143.3727  163.4569 S.O2    1  UNL1        0.0390
     29 O         137.8559  144.2913  163.3502 O.2     1  UNL1       -0.1576
     30 O         140.2179  142.4541  163.5635 O.2     1  UNL1       -0.1576
     31 C         139.1710  143.7139  164.9114 C.3     1  UNL1        0.1457
     32 C         140.0683  142.8975  165.7937 C.3     1  UNL1        0.0270
     33 C         138.4079  144.8715  165.4837 C.3     1  UNL1        0.0270
@<TRIPOS>BOND
     1    20    21    1
     2    21    19    1
     3    19    18    1
     4    18     8    1
     5     8     9   ar
     6     9    10   ar
     7    10     7    1
     8     7     1    1
     9     1     2    1
    10     2     3    1
    11     3     4    1
    12     4    22    1
    13    22    23    1
    14    23    24    1
    15    24    25    1
    16    25    26    1
    17    26    28    1
    18    28    29    2
    19    28    30    2
    20    28    31    1
    21    31    32    1
    22    31    33    1
    23     4     5    1
    24     5     6    1
    25    10    11   ar
    26    11    12   ar
    27    12    13   ar
    28    13    14   ar
    29    14    15   ar
    30    15    16   ar
    31    16    17   ar
    32    17     8   ar
    33     6     1    1
    34    16    11   ar
    35    26    27    1
@<TRIPOS>MOLECULE
*****
 33 35 0 0 0
SMALL
GASTEIGER

@<TRIPOS>ATOM
      1 C         138.4668  139.8080  163.4350 C.3     1  UNL1        0.1688
      2 C         137.8259  141.1584  163.5601 C.3     1  UNL1        0.0609
      3 C         137.7750  142.0771  162.3754 C.3     1  UNL1        0.0758
      4 N         138.3650  141.6453  161.0656 N.3     1  UNL1       -0.2724
      5 C         139.0060  140.2950  160.9405 C.3     1  UNL1        0.0758
      6 C         139.0569  139.3762  162.1252 C.3     1  UNL1        0.0609
      7 O         138.5177  138.8893  164.6197 O.3     1  UNL1       -0.4776
      8 C         139.7082  139.9834  168.2440 C.ar    1  UNL1       -0.0191
      9 C         138.8153  139.6609  167.0826 C.ar    1  UNL1        0.0342
     10 C         139.4105  139.2119  165.7811 C.ar    1  UNL1        0.1555
     11 C         140.8987  139.0854  165.6408 C.ar    1  UNL1        0.1151
     12 N         141.4939  138.6363  164.3393 N.ar    1  UNL1       -0.2408
     13 C         142.9819  138.5099  164.1991 C.ar    1  UNL1        0.0989
     14 C         143.8747  138.8324  165.3605 C.ar    1  UNL1        0.0207
     15 C         143.2795  139.2814  166.6621 C.ar    1  UNL1        0.0032
     16 C         141.7915  139.4079  166.8022 C.ar    1  UNL1        0.0204
     17 C         141.1962  139.8569  168.1038 C.ar    1  UNL1       -0.0026
     18 C         139.1129  140.4324  169.5456 C.3     1  UNL1        0.0265
     19 C         139.9304  141.2490  170.5021 C.3     1  UNL1        0.0047
     20 C         140.4597  143.5460  169.4095 C.3     1  UNL1        0.0000
     21 C         139.8142  142.7445  170.5008 C.3     1  UNL1        0.0003
     22 C         138.3142  142.5640  159.8810 C.3     1  UNL1        0.0721
     23 C         139.5815  143.1449  159.3273 C.3     1  UNL1        0.0188
     24 C         140.1601  144.3916  159.9279 C.3     1  UNL1        0.0202
     25 C         140.6230  144.3918  161.3547 C.3     1  UNL1        0.0911
     26 N         141.2071  143.1468  161.9539 N.3     1  UNL1       -0.1834
     27 H         142.1523  143.0562  161.5813 H       1  UNL1        0.1484
     28 S         141.3139  143.0104  163.4438 S.O2    1  UNL1        0.0390
     29 O         140.4113  144.1958  163.6171 O.2     1  UNL1       -0.1576
     30 O         142.2164  141.8249  163.2705 O.2     1  UNL1       -0.1576
     31 C         141.4208  142.8739  164.9338 C.3     1  UNL1        0.1457
     32 C         140.1832  142.9077  165.7807 C.3     1  UNL1        0.0270
     33 C         142.7652  142.7036  165.5768 C.3     1  UNL1        0.0270
@<TRIPOS>BOND
     1    20    21    1
     2    21    19    1
     3    19    18    1
     4    18     8    1
     5     8     9   ar
     6     9    10   ar
     7    10     7    1
     8     7     1    1
     9     1     2    1
    10     2     3    1
    11     3     4    1
    12     4    22    1
    13    22    23    1
    14    23    24    1
    15    24    25    1
    16    25    26    1
    17    26    28    1
    18    28    29    2
    19    28    30    2
    20    28    31    1
    21    31    32    1
    22    31    33    1
    23     4     5    1
    24     5     6    1
    25    10    11   ar
    26    11    12   ar
    27    12    13   ar
    28    13    14   ar
    29    14    15   ar
    30    15    16   ar
    31    16    17   ar
    32    17     8   ar
    33     6     1    1
    34    16    11   ar
    35    26    27    1
@<TRIPOS>MOLECULE
*****
 33 35 0 0 0
SMALL
GASTEIGER

@<TRIPOS>ATOM
      1 C         139.3521  138.2874  161.6063 C.3     1  UNL1        0.1688
      2 C         138.0024  138.9347  161.7039 C.3     1  UNL1        0.0609
      3 C         137.4645  139.7253  160.5483 C.3     1  UNL1        0.0758
      4 N         138.2761  139.8685  159.2950 N.3     1  UNL1       -0.2724
      5 C         139.6257  139.2213  159.1974 C.3     1  UNL1        0.0758
      6 C         140.1637  138.4307  160.3530 C.3     1  UNL1        0.0609
      7 O         139.8901  137.4968  162.7620 O.3     1  UNL1       -0.4776
      8 C         143.1231  138.9838  164.5187 C.ar    1  UNL1       -0.0191
      9 C         142.2395  138.3216  163.5035 C.ar    1  UNL1        0.0342
     10 C         140.7737  138.1591  163.7772 C.ar    1  UNL1        0.1555
     11 C         140.1914  138.6589  165.0661 C.ar    1  UNL1        0.1151
     12 N         138.7256  138.4965  165.3397 N.ar    1  UNL1       -0.2408
     13 C         138.1434  138.9963  166.6286 C.ar    1  UNL1        0.0989
     14 C         139.0271  139.6586  167.6438 C.ar    1  UNL1        0.0207
     15 C         140.4929  139.8210  167.3701 C.ar    1  UNL1        0.0032
     16 C         141.0751  139.3212  166.0813 C.ar    1  UNL1        0.0204
     17 C         142.5410  139.4836  165.8075 C.ar    1  UNL1       -0.0026
     18 C         144.5890  139.1463  164.2450 C.3     1  UNL1        0.0265
     19 C         145.1988  140.5164  164.2136 C.3     1  UNL1        0.0047
     20 C         144.4742  140.8365  161.7392 C.3     1  UNL1        0.0000
     21 C         144.9697  141.4124  163.0326 C.3     1  UNL1        0.0003
     22 C         137.7381  140.6591  158.1394 C.3     1  UNL1        0.0721
     23 C         137.9356  142.1453  158.0906 C.3     1  UNL1        0.0188
     24 C         139.2533  142.7403  158.4903 C.3     1  UNL1        0.0202
     25 C         139.4352  143.3015  159.8694 C.3     1  UNL1        0.0911
     26 N         138.2986  143.2702  160.8478 N.3     1  UNL1       -0.1834
     27 H         137.7780  142.4120  160.6670 H       1  UNL1        0.1484
     28 S         138.5764  143.3058  162.3214 S.O2    1  UNL1        0.0390
     29 O         139.4649  142.1053  162.1829 O.2     1  UNL1       -0.1576
     30 O         137.6880  144.5063  162.4599 O.2     1  UNL1       -0.1576
     31 C         138.8542  143.3414  163.7951 C.3     1  UNL1        0.1457
     32 C         138.6682  142.1048  164.6235 C.3     1  UNL1        0.0270
     33 C         139.3180  144.6136  164.4404 C.3     1  UNL1        0.0270
@<TRIPOS>BOND
     1    20    21    1
     2    21    19    1
     3    19    18    1
     4    18     8    1
     5     8     9   ar
     6     9    10   ar
     7    10     7    1
     8     7     1    1
     9     1     2    1
    10     2     3    1
    11     3     4    1
    12     4    22    1
    13    22    23    1
    14    23    24    1
    15    24    25    1
    16    25    26    1
    17    26    28    1
    18    28    29    2
    19    28    30    2
    20    28    31    1
    21    31    32    1
    22    31    33    1
    23     4     5    1
    24     5     6    1
    25    10    11   ar
    26    11    12   ar
    27    12    13   ar
    28    13    14   ar
    29    14    15   ar
    30    15    16   ar
    31    16    17   ar
    32    17     8   ar
    33     6     1    1
    34    16    11   ar
    35    26    27    1
@<TRIPOS>MOLECULE
*****
 33 35 0 0 0
SMALL
GASTEIGER

@<TRIPOS>ATOM
      1 C         143.2819  141.4073  164.9381 C.3     1  UNL1        0.1688
      2 C         144.1316  140.7216  163.9095 C.3     1  UNL1        0.0609
      3 C         144.2535  141.3000  162.5309 C.3     1  UNL1        0.0758
      4 N         143.5256  142.5640  162.1808 N.3     1  UNL1       -0.2724
      5 C         142.6759  143.2496  163.2093 C.3     1  UNL1        0.0758
      6 C         142.5540  142.6712  164.5880 C.3     1  UNL1        0.0609
      7 O         143.1600  140.8289  166.3167 O.3     1  UNL1       -0.4776
      8 C         139.4245  139.5085  166.5450 C.ar    1  UNL1       -0.0191
      9 C         140.7764  139.8481  165.9909 C.ar    1  UNL1        0.0342
     10 C         141.8081  140.4893  166.8708 C.ar    1  UNL1        0.1555
     11 C         141.4880  140.7910  168.3049 C.ar    1  UNL1        0.1151
     12 N         142.5197  141.4323  169.1848 N.ar    1  UNL1       -0.2408
     13 C         142.1996  141.7340  170.6188 C.ar    1  UNL1        0.0989
     14 C         140.8476  141.3944  171.1729 C.ar    1  UNL1        0.0207
     15 C         139.8159  140.7531  170.2930 C.ar    1  UNL1        0.0032
     16 C         140.1361  140.4515  168.8590 C.ar    1  UNL1        0.0204
     17 C         139.1043  139.8102  167.9790 C.ar    1  UNL1       -0.0026
     18 C         138.3927  138.8673  165.6650 C.3     1  UNL1        0.0265
     19 C         138.5116  138.9689  164.1732 C.3     1  UNL1        0.0047
     20 C         140.2018  137.6705  162.6874 C.3     1  UNL1        0.0000
     21 C         138.8661  137.7562  163.3647 C.3     1  UNL1        0.0003
     22 C         143.6474  143.1423  160.8022 C.3     1  UNL1        0.0721
     23 C         142.4481  143.1961  159.9027 C.3     1  UNL1        0.0188
     24 C         141.4748  144.3316  160.0177 C.3     1  UNL1        0.0202
     25 C         140.0603  144.0668  160.4409 C.3     1  UNL1        0.0911
     26 N         139.3766  144.9986  161.3972 N.3     1  UNL1       -0.1834
     27 H         138.5518  145.3595  160.9178 H       1  UNL1        0.1484
     28 S         138.9157  144.4965  162.7334 S.O2    1  UNL1        0.0390
     29 O         139.9532  145.3431  163.4093 O.2     1  UNL1       -0.1576
     30 O         137.8783  143.6499  162.0574 O.2     1  UNL1       -0.1576
     31 C         138.4548  143.9943  164.0696 C.3     1  UNL1        0.1457
     32 C         138.6459  144.8385  165.2947 C.3     1  UNL1        0.0270
     33 C         137.8029  142.6480  164.1807 C.3     1  UNL1        0.0270
@<TRIPOS>BOND
     1    20    21    1
     2    21    19    1
     3    19    18    1
     4    18     8    1
     5     8     9   ar
     6     9    10   ar
     7    10     7    1
     8     7     1    1
     9     1     2    1
    10     2     3    1
    11     3     4    1
    12     4    22    1
    13    22    23    1
    14    23    24    1
    15    24    25    1
    16    25    26    1
    17    26    28    1
    18    28    29    2
    19    28    30    2
    20    28    31    1
    21    31    32    1
    22    31    33    1
    23     4     5    1
    24     5     6    1
    25    10    11   ar
    26    11    12   ar
    27    12    13   ar
    28    13    14   ar
    29    14    15   ar
    30    15    16   ar
    31    16    17   ar
    32    17     8   ar
    33     6     1    1
    34    16    11   ar
    35    26    27    1
@<TRIPOS>MOLECULE
*****
 33 35 0 0 0
SMALL
GASTEIGER

@<TRIPOS>ATOM
      1 C         139.1594  138.3389  161.7146 C.3     1  UNL1        0.1688
      2 C         140.0153  138.3985  160.4841 C.3     1  UNL1        0.0609
      3 C         139.5441  139.1567  159.2787 C.3     1  UNL1        0.0758
      4 N         138.2169  139.8554  159.3037 N.3     1  UNL1       -0.2724
      5 C         137.3611  139.7958  160.5341 C.3     1  UNL1        0.0758
      6 C         137.8323  139.0375  161.7396 C.3     1  UNL1        0.0609
      7 O         139.6307  137.5807  162.9199 O.3     1  UNL1       -0.4776
      8 C         140.1138  139.4242  166.4010 C.ar    1  UNL1       -0.0191
      9 C         139.4667  138.6942  165.2615 C.ar    1  UNL1        0.0342
     10 C         140.2778  138.3106  164.0594 C.ar    1  UNL1        0.1555
     11 C         141.7359  138.6570  163.9968 C.ar    1  UNL1        0.1151
     12 N         142.5470  138.2734  162.7947 N.ar    1  UNL1       -0.2408
     13 C         144.0050  138.6198  162.7322 C.ar    1  UNL1        0.0989
     14 C         144.6521  139.3497  163.8717 C.ar    1  UNL1        0.0207
     15 C         143.8411  139.7333  165.0738 C.ar    1  UNL1        0.0032
     16 C         142.3830  139.3870  165.1363 C.ar    1  UNL1        0.0204
     17 C         141.5719  139.7706  166.3385 C.ar    1  UNL1       -0.0026
     18 C         139.3027  139.8078  167.6032 C.3     1  UNL1        0.0265
     19 C         139.9886  140.1525  168.8918 C.3     1  UNL1        0.0047
     20 C         140.3002  142.6360  168.1951 C.3     1  UNL1        0.0000
     21 C         140.2055  141.5890  169.2651 C.3     1  UNL1        0.0003
     22 C         137.7457  140.6136  158.0983 C.3     1  UNL1        0.0721
     23 C         137.9041  142.1041  158.0407 C.3     1  UNL1        0.0188
     24 C         139.2160  142.7336  158.4046 C.3     1  UNL1        0.0202
     25 C         139.4611  143.1974  159.8099 C.3     1  UNL1        0.0911
     26 N         138.3305  143.2355  160.7951 N.3     1  UNL1       -0.1834
     27 H         137.7626  142.4058  160.6237 H       1  UNL1        0.1484
     28 S         138.6189  143.2666  162.2667 S.O2    1  UNL1        0.0390
     29 O         137.7121  144.4517  162.4194 O.2     1  UNL1       -0.1576
     30 O         139.5256  142.0816  162.1141 O.2     1  UNL1       -0.1576
     31 C         138.9073  143.2977  163.7385 C.3     1  UNL1        0.1457
     32 C         138.0634  144.1380  164.6505 C.3     1  UNL1        0.0270
     33 C         140.0395  142.4884  164.2981 C.3     1  UNL1        0.0270
@<TRIPOS>BOND
     1    20    21    1
     2    21    19    1
     3    19    18    1
     4    18     8    1
     5     8     9   ar
     6     9    10   ar
     7    10     7    1
     8     7     1    1
     9     1     2    1
    10     2     3    1
    11     3     4    1
    12     4    22    1
    13    22    23    1
    14    23    24    1
    15    24    25    1
    16    25    26    1
    17    26    28    1
    18    28    29    2
    19    28    30    2
    20    28    31    1
    21    31    32    1
    22    31    33    1
    23     4     5    1
    24     5     6    1
    25    10    11   ar
    26    11    12   ar
    27    12    13   ar
    28    13    14   ar
    29    14    15   ar
    30    15    16   ar
    31    16    17   ar
    32    17     8   ar
    33     6     1    1
    34    16    11   ar
    35    26    27    1
@<TRIPOS>MOLECULE
*****
 33 35 0 0 0
SMALL
GASTEIGER

@<TRIPOS>ATOM
      1 C         138.4573  139.2441  164.2831 C.3     1  UNL1        0.1688
      2 C         138.0106  140.6043  163.8353 C.3     1  UNL1        0.0609
      3 C         137.7549  140.8687  162.3811 C.3     1  UNL1        0.0758
      4 N         137.9458  139.7730  161.3747 N.3     1  UNL1       -0.2724
      5 C         138.3925  138.4129  161.8223 C.3     1  UNL1        0.0758
      6 C         138.6482  138.1484  163.2766 C.3     1  UNL1        0.0609
      7 O         138.7130  138.9796  165.7372 O.3     1  UNL1       -0.4776
      8 C         142.6623  139.2218  166.0447 C.ar    1  UNL1       -0.0191
      9 C         141.2971  138.9883  165.4687 C.ar    1  UNL1        0.0342
     10 C         140.0781  139.2132  166.3133 C.ar    1  UNL1        0.1555
     11 C         140.2242  139.6718  167.7340 C.ar    1  UNL1        0.1151
     12 N         139.0052  139.8968  168.5786 N.ar    1  UNL1       -0.2408
     13 C         139.1514  140.3553  169.9993 C.ar    1  UNL1        0.0989
     14 C         140.5165  140.5889  170.5753 C.ar    1  UNL1        0.0207
     15 C         141.7355  140.3640  169.7307 C.ar    1  UNL1        0.0032
     16 C         141.5894  139.9054  168.3101 C.ar    1  UNL1        0.0204
     17 C         142.8084  139.6804  167.4654 C.ar    1  UNL1       -0.0026
     18 C         143.8813  138.9969  165.2001 C.3     1  UNL1        0.0265
     19 C         144.1564  139.8906  164.0272 C.3     1  UNL1        0.0047
     20 C         144.3226  142.3573  164.8258 C.3     1  UNL1        0.0000
     21 C         144.9578  141.1450  164.2119 C.3     1  UNL1        0.0003
     22 C         137.6901  140.0374  159.9205 C.3     1  UNL1        0.0721
     23 C         138.7211  140.7485  159.0948 C.3     1  UNL1        0.0188
     24 C         138.7560  142.2478  159.0671 C.3     1  UNL1        0.0202
     25 C         139.7017  142.9926  159.9619 C.3     1  UNL1        0.0911
     26 N         139.2266  144.1979  160.7180 N.3     1  UNL1       -0.1834
     27 H         138.2122  144.2287  160.6156 H       1  UNL1        0.1484
     28 S         139.5180  144.3267  162.1837 S.O2    1  UNL1        0.0390
     29 O         140.4593  143.1620  162.0990 O.2     1  UNL1       -0.1576
     30 O         138.5767  145.4915  162.2685 O.2     1  UNL1       -0.1576
     31 C         139.8094  144.4556  163.6496 C.3     1  UNL1        0.1457
     32 C         138.6830  144.6183  164.6267 C.3     1  UNL1        0.0270
     33 C         141.2272  144.4218  164.1382 C.3     1  UNL1        0.0270
@<TRIPOS>BOND
     1    20    21    1
     2    21    19    1
     3    19    18    1
     4    18     8    1
     5     8     9   ar
     6     9    10   ar
     7    10     7    1
     8     7     1    1
     9     1     2    1
    10     2     3    1
    11     3     4    1
    12     4    22    1
    13    22    23    1
    14    23    24    1
    15    24    25    1
    16    25    26    1
    17    26    28    1
    18    28    29    2
    19    28    30    2
    20    28    31    1
    21    31    32    1
    22    31    33    1
    23     4     5    1
    24     5     6    1
    25    10    11   ar
    26    11    12   ar
    27    12    13   ar
    28    13    14   ar
    29    14    15   ar
    30    15    16   ar
    31    16    17   ar
    32    17     8   ar
    33     6     1    1
    34    16    11   ar
    35    26    27    1
@<TRIPOS>MOLECULE
*****
 33 35 0 0 0
SMALL
GASTEIGER

@<TRIPOS>ATOM
      1 C         143.5302  139.4039  164.7454 C.3     1  UNL1        0.1688
      2 C         144.4706  140.4788  164.2867 C.3     1  UNL1        0.0609
      3 C         144.7071  140.6930  162.8211 C.3     1  UNL1        0.0758
      4 N         144.0033  139.8323  161.8141 N.3     1  UNL1       -0.2724
      5 C         143.0630  138.7575  162.2728 C.3     1  UNL1        0.0758
      6 C         142.8265  138.5432  163.7385 C.3     1  UNL1        0.0609
      7 O         143.2937  139.1897  166.2111 O.3     1  UNL1       -0.4776
      8 C         139.3617  139.6208  166.5329 C.ar    1  UNL1       -0.0191
      9 C         140.7144  139.3496  165.9440 C.ar    1  UNL1        0.0342
     10 C         141.9411  139.4609  166.8000 C.ar    1  UNL1        0.1555
     11 C         141.8152  139.8433  168.2450 C.ar    1  UNL1        0.1151
     12 N         143.0419  139.9546  169.1010 N.ar    1  UNL1       -0.2408
     13 C         142.9159  140.3370  170.5459 C.ar    1  UNL1        0.0989
     14 C         141.5633  140.6082  171.1348 C.ar    1  UNL1        0.0207
     15 C         140.3366  140.4970  170.2788 C.ar    1  UNL1        0.0032
     16 C         140.4625  140.1145  168.8339 C.ar    1  UNL1        0.0204
     17 C         139.2358  140.0032  167.9779 C.ar    1  UNL1       -0.0026
     18 C         138.1350  139.5095  165.6769 C.3     1  UNL1        0.0265
     19 C         138.0695  140.2301  164.3629 C.3     1  UNL1        0.0047
     20 C         138.7110  138.0377  163.1251 C.3     1  UNL1        0.0000
     21 C         138.4044  139.5057  163.0928 C.3     1  UNL1        0.0003
     22 C         144.2399  140.0465  160.3485 C.3     1  UNL1        0.0721
     23 C         143.4585  141.0908  159.6074 C.3     1  UNL1        0.0188
     24 C         143.7147  142.5454  159.8688 C.3     1  UNL1        0.0202
     25 C         142.5638  143.4995  159.9908 C.3     1  UNL1        0.0911
     26 N         142.5810  144.5644  161.0472 N.3     1  UNL1       -0.1834
     27 H         141.7039  145.0779  160.9620 H       1  UNL1        0.1484
     28 S         142.7226  144.1857  162.4916 S.O2    1  UNL1        0.0390
     29 O         141.3628  143.5534  162.4591 O.2     1  UNL1       -0.1576
     30 O         144.0823  144.8181  162.5242 O.2     1  UNL1       -0.1576
     31 C         142.8641  143.8071  163.9362 C.3     1  UNL1        0.1457
     32 C         144.1045  144.1822  164.6917 C.3     1  UNL1        0.0270
     33 C         141.7654  143.0533  164.6251 C.3     1  UNL1        0.0270
@<TRIPOS>BOND
     1    20    21    1
     2    21    19    1
     3    19    18    1
     4    18     8    1
     5     8     9   ar
     6     9    10   ar
     7    10     7    1
     8     7     1    1
     9     1     2    1
    10     2     3    1
    11     3     4    1
    12     4    22    1
    13    22    23    1
    14    23    24    1
    15    24    25    1
    16    25    26    1
    17    26    28    1
    18    28    29    2
    19    28    30    2
    20    28    31    1
    21    31    32    1
    22    31    33    1
    23     4     5    1
    24     5     6    1
    25    10    11   ar
    26    11    12   ar
    27    12    13   ar
    28    13    14   ar
    29    14    15   ar
    30    15    16   ar
    31    16    17   ar
    32    17     8   ar
    33     6     1    1
    34    16    11   ar
    35    26    27    1
