@<TRIPOS>MOLECULE
*****
 33 36 0 0 0
SMALL
GASTEIGER

@<TRIPOS>ATOM
      1 N         143.7605  140.0704  164.5915 N.3     1  UNL1       -0.2679
      2 C         143.3945  139.3021  163.3563 C.3     1  UNL1        0.0897
      3 C         142.2643  138.3166  163.3934 C.3     1  UNL1        0.0897
      4 N         141.5000  138.0994  164.6657 N.3     1  UNL1       -0.2700
      5 C         141.8660  138.8677  165.9010 C.3     1  UNL1        0.0897
      6 C         142.9963  139.8532  165.8638 C.3     1  UNL1        0.0897
      7 C         144.8907  141.0559  164.5544 C.3     1  UNL1        0.1080
      8 C         145.0367  141.9862  163.3868 C.3     1  UNL1        0.1661
      9 O         146.3253  142.0313  162.6204 O.3     1  UNL1       -0.3771
     10 H         146.9539  141.4021  163.0074 H       1  UNL1        0.2109
     11 C         142.5047  144.0518  161.1346 C.ar    1  UNL1        0.1510
     12 C         143.6475  143.1667  161.5358 C.ar    1  UNL1        0.0548
     13 C         143.8940  142.8712  162.9856 C.ar    1  UNL1        0.0901
     14 N         142.9979  143.4607  164.0342 N.ar    1  UNL1       -0.2448
     15 C         141.8552  144.3457  163.6329 C.ar    1  UNL1        0.1118
     16 C         141.6086  144.6413  162.1831 C.ar    1  UNL1        0.1213
     17 C         141.5480  143.3441  158.8251 C.3     1  UNL1        0.2525
     18 O         142.2582  144.3473  159.6848 O.3     1  UNL1       -0.4707
     19 C         140.4659  145.5263  161.7820 C.1     1  UNL1        0.1051
     20 N         139.3232  146.4112  161.3808 N.1     1  UNL1       -0.1907
     21 C         140.3698  137.1139  164.7028 C.3     1  UNL1        0.0769
     22 C         138.9506  137.5994  164.6876 C.3     1  UNL1        0.0433
     23 C         138.6434  139.0056  164.2651 C.ar    1  UNL1       -0.0249
     24 C         138.4652  140.0774  165.2992 C.ar    1  UNL1       -0.0043
     25 C         138.1580  141.4835  164.8767 C.ar    1  UNL1        0.0059
     26 C         138.0290  141.8177  163.4201 C.ar    1  UNL1        0.0748
     27 C         138.2072  140.7459  162.3860 C.ar    1  UNL1        0.0233
     28 C         138.5144  139.3398  162.8085 C.ar    1  UNL1       -0.0260
     29 C         138.6926  138.2678  161.7744 C.3     1  UNL1        0.0305
     30 C         138.0228  141.3702  161.0347 C.3     1  UNL1        0.2352
     31 O         137.7306  142.8280  161.2336 O.3     1  UNL1       -0.4404
     32 C         137.7344  143.1046  162.7079 C.2     1  UNL1        0.3413
     33 O         137.4871  144.4345  163.3561 O.2     1  UNL1       -0.2449
@<TRIPOS>BOND
     1    17    18    1
     2    18    11    1
     3    11    12   ar
     4    12    13   ar
     5    13     8    1
     6     8     9    1
     7     8     7    1
     8     7     1    1
     9     1     2    1
    10     2     3    1
    11     3     4    1
    12     4    21    1
    13    21    22    1
    14    22    23    1
    15    23    24   ar
    16    24    25   ar
    17    25    26   ar
    18    26    27   ar
    19    27    28   ar
    20    28    29    1
    21    27    30    1
    22    30    31    1
    23    31    32    1
    24    32    33    2
    25     4     5    1
    26     5     6    1
    27    13    14   ar
    28    14    15   ar
    29    15    16   ar
    30    16    19    1
    31    19    20    3
    32    16    11   ar
    33     6     1    1
    34    28    23   ar
    35    32    26    1
    36     9    10    1
@<TRIPOS>MOLECULE
*****
 33 36 0 0 0
SMALL
GASTEIGER

@<TRIPOS>ATOM
      1 N         143.4085  139.3714  162.8863 N.3     1  UNL1       -0.2679
      2 C         143.4094  139.1307  164.3668 C.3     1  UNL1        0.0897
      3 C         142.2199  138.4961  165.0242 C.3     1  UNL1        0.0897
      4 N         141.0293  138.1022  164.2012 N.3     1  UNL1       -0.2700
      5 C         141.0283  138.3430  162.7206 C.3     1  UNL1        0.0897
      6 C         142.2179  138.9776  162.0632 C.3     1  UNL1        0.0897
      7 C         144.5980  140.0060  162.2288 C.3     1  UNL1        0.1080
      8 C         144.8917  141.4599  162.4523 C.3     1  UNL1        0.1661
      9 O         146.2532  141.8876  162.9142 O.3     1  UNL1       -0.3771
     10 H         146.8191  141.1069  163.0191 H       1  UNL1        0.2109
     11 C         142.5391  144.0622  160.5966 C.ar    1  UNL1        0.1510
     12 C         143.6070  143.0361  160.8352 C.ar    1  UNL1        0.0548
     13 C         143.8239  142.4859  162.2137 C.ar    1  UNL1        0.0901
     14 N         142.9730  142.9619  163.3537 N.ar    1  UNL1       -0.2448
     15 C         141.9052  143.9880  163.1151 C.ar    1  UNL1        0.1118
     16 C         141.6882  144.5381  161.7365 C.ar    1  UNL1        0.1213
     17 C         142.5403  143.7381  158.0188 C.3     1  UNL1        0.2525
     18 O         142.3222  144.6123  159.2181 O.3     1  UNL1       -0.4707
     19 C         140.6204  145.5642  161.4980 C.1     1  UNL1        0.1051
     20 N         139.5526  146.5903  161.2596 N.1     1  UNL1       -0.1907
     21 C         139.8398  137.4677  164.8587 C.3     1  UNL1        0.0769
     22 C         138.7807  138.3270  165.4830 C.3     1  UNL1        0.0433
     23 C         138.5752  139.7328  165.0014 C.ar    1  UNL1       -0.0249
     24 C         137.7736  139.9908  163.7602 C.ar    1  UNL1       -0.0043
     25 C         137.5682  141.3965  163.2787 C.ar    1  UNL1        0.0059
     26 C         138.1644  142.5442  164.0385 C.ar    1  UNL1        0.0748
     27 C         138.9661  142.2862  165.2798 C.ar    1  UNL1        0.0233
     28 C         139.1715  140.8805  165.7613 C.ar    1  UNL1       -0.0260
     29 C         139.9732  140.6224  167.0026 C.3     1  UNL1        0.0305
     30 C         139.4284  143.6085  165.8162 C.3     1  UNL1        0.2352
     31 O         138.9125  144.6837  164.9064 O.3     1  UNL1       -0.4404
     32 C         138.1313  144.0259  163.8078 C.2     1  UNL1        0.3413
     33 O         137.4386  144.7269  162.6769 O.2     1  UNL1       -0.2449
@<TRIPOS>BOND
     1    17    18    1
     2    18    11    1
     3    11    12   ar
     4    12    13   ar
     5    13     8    1
     6     8     9    1
     7     8     7    1
     8     7     1    1
     9     1     2    1
    10     2     3    1
    11     3     4    1
    12     4    21    1
    13    21    22    1
    14    22    23    1
    15    23    24   ar
    16    24    25   ar
    17    25    26   ar
    18    26    27   ar
    19    27    28   ar
    20    28    29    1
    21    27    30    1
    22    30    31    1
    23    31    32    1
    24    32    33    2
    25     4     5    1
    26     5     6    1
    27    13    14   ar
    28    14    15   ar
    29    15    16   ar
    30    16    19    1
    31    19    20    3
    32    16    11   ar
    33     6     1    1
    34    28    23   ar
    35    32    26    1
    36     9    10    1
@<TRIPOS>MOLECULE
*****
 33 36 0 0 0
SMALL
GASTEIGER

@<TRIPOS>ATOM
      1 N         138.2491  143.2839  162.5313 N.3     1  UNL1       -0.2679
      2 C         138.4522  142.7483  161.1449 C.3     1  UNL1        0.0897
      3 C         138.2721  141.2843  160.8725 C.3     1  UNL1        0.0897
      4 N         137.8890  140.3558  161.9865 N.3     1  UNL1       -0.2700
      5 C         137.6859  140.8912  163.3729 C.3     1  UNL1        0.0897
      6 C         137.8660  142.3553  163.6452 C.3     1  UNL1        0.0897
      7 C         138.4291  144.7479  162.8037 C.3     1  UNL1        0.1080
      8 C         139.7298  145.4179  162.4731 C.3     1  UNL1        0.1661
      9 O         139.7400  146.8357  161.9835 O.3     1  UNL1       -0.3771
     10 H         138.8301  147.1687  161.9383 H       1  UNL1        0.2109
     11 C         142.8168  143.5827  164.1622 C.ar    1  UNL1        0.1510
     12 C         141.5262  144.3306  164.0030 C.ar    1  UNL1        0.0548
     13 C         141.0203  144.6700  162.6323 C.ar    1  UNL1        0.0901
     14 N         141.8048  144.2616  161.4208 N.ar    1  UNL1       -0.2448
     15 C         143.0953  143.5138  161.5800 C.ar    1  UNL1        0.1118
     16 C         143.6013  143.1743  162.9507 C.ar    1  UNL1        0.1213
     17 C         142.8244  142.0139  166.2332 C.3     1  UNL1        0.2525
     18 O         143.3227  143.2433  165.5329 O.3     1  UNL1       -0.4707
     19 C         144.8918  142.4264  163.1099 C.1     1  UNL1        0.1051
     20 N         146.1823  141.6787  163.2690 N.1     1  UNL1       -0.1907
     21 C         137.7090  138.8918  161.7141 C.3     1  UNL1        0.0769
     22 C         138.9048  137.9887  161.6473 C.3     1  UNL1        0.0433
     23 C         139.9882  138.1013  162.6787 C.ar    1  UNL1       -0.0249
     24 C         139.6843  137.8173  164.1198 C.ar    1  UNL1       -0.0043
     25 C         140.7676  137.9299  165.1511 C.ar    1  UNL1        0.0059
     26 C         142.1550  138.3265  164.7413 C.ar    1  UNL1        0.0748
     27 C         142.4590  138.6105  163.3002 C.ar    1  UNL1        0.0233
     28 C         141.3756  138.4979  162.2688 C.ar    1  UNL1       -0.0260
     29 C         141.6795  138.7819  160.8276 C.3     1  UNL1        0.0305
     30 C         143.9095  138.9779  163.1960 C.3     1  UNL1        0.2352
     31 O         144.5020  138.9209  164.5729 O.3     1  UNL1       -0.4404
     32 C         143.4177  138.5183  165.5279 C.2     1  UNL1        0.3413
     33 O         143.5694  138.3390  167.0094 O.2     1  UNL1       -0.2449
@<TRIPOS>BOND
     1    17    18    1
     2    18    11    1
     3    11    12   ar
     4    12    13   ar
     5    13     8    1
     6     8     9    1
     7     8     7    1
     8     7     1    1
     9     1     2    1
    10     2     3    1
    11     3     4    1
    12     4    21    1
    13    21    22    1
    14    22    23    1
    15    23    24   ar
    16    24    25   ar
    17    25    26   ar
    18    26    27   ar
    19    27    28   ar
    20    28    29    1
    21    27    30    1
    22    30    31    1
    23    31    32    1
    24    32    33    2
    25     4     5    1
    26     5     6    1
    27    13    14   ar
    28    14    15   ar
    29    15    16   ar
    30    16    19    1
    31    19    20    3
    32    16    11   ar
    33     6     1    1
    34    28    23   ar
    35    32    26    1
    36     9    10    1
@<TRIPOS>MOLECULE
*****
 33 36 0 0 0
SMALL
GASTEIGER

@<TRIPOS>ATOM
      1 N         140.3624  139.6663  160.8222 N.3     1  UNL1       -0.2679
      2 C         141.4004  140.7356  160.6503 C.3     1  UNL1        0.0897
      3 C         142.7299  140.6068  161.3326 C.3     1  UNL1        0.0897
      4 N         143.0217  139.4090  162.1870 N.3     1  UNL1       -0.2700
      5 C         141.9838  138.3397  162.3590 C.3     1  UNL1        0.0897
      6 C         140.6542  138.4684  161.6766 C.3     1  UNL1        0.0897
      7 C         139.0328  139.7949  160.1399 C.3     1  UNL1        0.1080
      8 C         137.8129  140.1533  160.9358 C.3     1  UNL1        0.1661
      9 O         136.5138  139.4505  160.6745 O.3     1  UNL1       -0.3771
     10 H         136.6352  138.7994  159.9659 H       1  UNL1        0.2109
     11 C         138.1406  143.7137  162.6581 C.ar    1  UNL1        0.1510
     12 C         138.0612  142.6524  161.6009 C.ar    1  UNL1        0.0548
     13 C         137.8923  141.2144  161.9930 C.ar    1  UNL1        0.0901
     14 N         137.8028  140.8377  163.4421 N.ar    1  UNL1       -0.2448
     15 C         137.8821  141.8989  164.4992 C.ar    1  UNL1        0.1118
     16 C         138.0510  143.3369  164.1073 C.ar    1  UNL1        0.1213
     17 C         139.6781  145.6958  161.9820 C.3     1  UNL1        0.2525
     18 O         138.3095  145.1517  162.2661 O.3     1  UNL1       -0.4707
     19 C         138.1304  144.3981  165.1644 C.1     1  UNL1        0.1051
     20 N         138.2097  145.4592  166.2217 N.1     1  UNL1       -0.1907
     21 C         144.3513  139.2803  162.8693 C.3     1  UNL1        0.0769
     22 C         144.6608  140.1199  164.0732 C.3     1  UNL1        0.0433
     23 C         143.7046  140.1558  165.2285 C.ar    1  UNL1       -0.0249
     24 C         143.6030  138.9804  166.1548 C.ar    1  UNL1       -0.0043
     25 C         142.6469  139.0163  167.3100 C.ar    1  UNL1        0.0059
     26 C         141.7923  140.2277  167.5389 C.ar    1  UNL1        0.0748
     27 C         141.8939  141.4031  166.6126 C.ar    1  UNL1        0.0233
     28 C         142.8500  141.3672  165.4574 C.ar    1  UNL1       -0.0260
     29 C         142.9517  142.5427  164.5310 C.3     1  UNL1        0.0305
     30 C         140.9311  142.4512  167.0863 C.3     1  UNL1        0.2352
     31 O         140.2344  141.9235  168.3054 O.3     1  UNL1       -0.4404
     32 C         140.7667  140.5493  168.5851 C.2     1  UNL1        0.3413
     33 O         140.3470  139.6539  169.7131 O.2     1  UNL1       -0.2449
@<TRIPOS>BOND
     1    17    18    1
     2    18    11    1
     3    11    12   ar
     4    12    13   ar
     5    13     8    1
     6     8     9    1
     7     8     7    1
     8     7     1    1
     9     1     2    1
    10     2     3    1
    11     3     4    1
    12     4    21    1
    13    21    22    1
    14    22    23    1
    15    23    24   ar
    16    24    25   ar
    17    25    26   ar
    18    26    27   ar
    19    27    28   ar
    20    28    29    1
    21    27    30    1
    22    30    31    1
    23    31    32    1
    24    32    33    2
    25     4     5    1
    26     5     6    1
    27    13    14   ar
    28    14    15   ar
    29    15    16   ar
    30    16    19    1
    31    19    20    3
    32    16    11   ar
    33     6     1    1
    34    28    23   ar
    35    32    26    1
    36     9    10    1
@<TRIPOS>MOLECULE
*****
 33 36 0 0 0
SMALL
GASTEIGER

@<TRIPOS>ATOM
      1 N         138.4738  143.3882  162.4662 N.3     1  UNL1       -0.2679
      2 C         137.8120  142.7530  163.6530 C.3     1  UNL1        0.0897
      3 C         137.7093  141.2593  163.7443 C.3     1  UNL1        0.0897
      4 N         138.2684  140.4007  162.6488 N.3     1  UNL1       -0.2700
      5 C         138.9303  141.0358  161.4619 C.3     1  UNL1        0.0897
      6 C         139.0330  142.5296  161.3707 C.3     1  UNL1        0.0897
      7 C         138.5766  144.8818  162.3748 C.3     1  UNL1        0.1080
      8 C         139.9189  145.5472  162.4487 C.3     1  UNL1        0.1661
      9 O         140.0366  147.0256  162.2239 O.3     1  UNL1       -0.3771
     10 H         139.1584  147.3962  162.0443 H       1  UNL1        0.2109
     11 C         143.3556  143.6244  161.9566 C.ar    1  UNL1        0.1510
     12 C         142.1309  144.4375  161.6579 C.ar    1  UNL1        0.0548
     13 C         141.1435  144.7341  162.7474 C.ar    1  UNL1        0.0901
     14 N         141.3807  144.2177  164.1356 N.ar    1  UNL1       -0.2448
     15 C         142.6053  143.4046  164.4342 C.ar    1  UNL1        0.1118
     16 C         143.5928  143.1079  163.3447 C.ar    1  UNL1        0.1213
     17 C         144.0326  142.2813  159.8381 C.3     1  UNL1        0.2525
     18 O         144.3430  143.3277  160.8670 O.3     1  UNL1       -0.4707
     19 C         144.8174  142.2949  163.6434 C.1     1  UNL1        0.1051
     20 N         146.0419  141.4817  163.9422 N.1     1  UNL1       -0.1907
     21 C         138.1657  138.9070  162.7401 C.3     1  UNL1        0.0769
     22 C         138.9620  138.1621  163.7701 C.3     1  UNL1        0.0433
     23 C         139.0848  138.7077  165.1621 C.ar    1  UNL1       -0.0249
     24 C         137.9795  138.4912  166.1527 C.ar    1  UNL1       -0.0043
     25 C         138.1023  139.0368  167.5445 C.ar    1  UNL1        0.0059
     26 C         139.3304  139.7989  167.9457 C.ar    1  UNL1        0.0748
     27 C         140.4357  140.0155  166.9550 C.ar    1  UNL1        0.0233
     28 C         140.3129  139.4699  165.5632 C.ar    1  UNL1       -0.0260
     29 C         141.4182  139.6864  164.5725 C.3     1  UNL1        0.0305
     30 C         141.5190  140.8005  167.6334 C.3     1  UNL1        0.2352
     31 O         141.0832  141.0691  169.0433 O.3     1  UNL1       -0.4404
     32 C         139.7306  140.4501  169.2364 C.2     1  UNL1        0.3413
     33 O         138.9204  140.4775  170.4985 O.2     1  UNL1       -0.2449
@<TRIPOS>BOND
     1    17    18    1
     2    18    11    1
     3    11    12   ar
     4    12    13   ar
     5    13     8    1
     6     8     9    1
     7     8     7    1
     8     7     1    1
     9     1     2    1
    10     2     3    1
    11     3     4    1
    12     4    21    1
    13    21    22    1
    14    22    23    1
    15    23    24   ar
    16    24    25   ar
    17    25    26   ar
    18    26    27   ar
    19    27    28   ar
    20    28    29    1
    21    27    30    1
    22    30    31    1
    23    31    32    1
    24    32    33    2
    25     4     5    1
    26     5     6    1
    27    13    14   ar
    28    14    15   ar
    29    15    16   ar
    30    16    19    1
    31    19    20    3
    32    16    11   ar
    33     6     1    1
    34    28    23   ar
    35    32    26    1
    36     9    10    1
@<TRIPOS>MOLECULE
*****
 33 36 0 0 0
SMALL
GASTEIGER

@<TRIPOS>ATOM
      1 N         139.9906  138.6502  161.3919 N.3     1  UNL1       -0.2679
      2 C         139.3296  137.9569  162.5462 C.3     1  UNL1        0.0897
      3 C         140.1005  137.6977  163.8066 C.3     1  UNL1        0.0897
      4 N         141.5323  138.1319  163.9128 N.3     1  UNL1       -0.2700
      5 C         142.1934  138.8253  162.7585 C.3     1  UNL1        0.0897
      6 C         141.4225  139.0844  161.4981 C.3     1  UNL1        0.0897
      7 C         139.2199  138.9094  160.1315 C.3     1  UNL1        0.1080
      8 C         138.3725  140.1412  160.0104 C.3     1  UNL1        0.1661
      9 O         137.5316  140.3558  158.7870 O.3     1  UNL1       -0.3771
     10 H         137.6508  139.6103  158.1778 H       1  UNL1        0.2109
     11 C         139.4058  143.2504  162.2499 C.ar    1  UNL1        0.1510
     12 C         139.4121  142.2331  161.1474 C.ar    1  UNL1        0.0548
     13 C         138.3662  141.1584  161.1127 C.ar    1  UNL1        0.0901
     14 N         137.3141  141.1010  162.1803 N.ar    1  UNL1       -0.2448
     15 C         137.3078  142.1182  163.2826 C.ar    1  UNL1        0.1118
     16 C         138.3537  143.1930  163.3174 C.ar    1  UNL1        0.1213
     17 C         141.6130  144.2724  161.3366 C.3     1  UNL1        0.2525
     18 O         140.4517  144.3251  162.2846 O.3     1  UNL1       -0.4707
     19 C         138.3474  144.2102  164.4198 C.1     1  UNL1        0.1051
     20 N         138.3411  145.2274  165.5221 N.1     1  UNL1       -0.1907
     21 C         142.3031  137.8727  165.1732 C.3     1  UNL1        0.0769
     22 C         143.0873  138.9794  165.8138 C.3     1  UNL1        0.0433
     23 C         142.5117  139.7299  166.9781 C.ar    1  UNL1       -0.0249
     24 C         142.7129  139.2182  168.3736 C.ar    1  UNL1       -0.0043
     25 C         142.1374  139.9687  169.5379 C.ar    1  UNL1        0.0059
     26 C         141.3606  141.2308  169.3066 C.ar    1  UNL1        0.0748
     27 C         141.1594  141.7426  167.9111 C.ar    1  UNL1        0.0233
     28 C         141.7349  140.9921  166.7468 C.ar    1  UNL1       -0.0260
     29 C         141.5337  141.5038  165.3511 C.3     1  UNL1        0.0305
     30 C         140.3546  143.0058  167.9921 C.3     1  UNL1        0.2352
     31 O         140.0585  143.2748  169.4377 O.3     1  UNL1       -0.4404
     32 C         140.6803  142.1778  170.2502 C.2     1  UNL1        0.3413
     33 O         140.6304  142.0503  171.7439 O.2     1  UNL1       -0.2449
@<TRIPOS>BOND
     1    17    18    1
     2    18    11    1
     3    11    12   ar
     4    12    13   ar
     5    13     8    1
     6     8     9    1
     7     8     7    1
     8     7     1    1
     9     1     2    1
    10     2     3    1
    11     3     4    1
    12     4    21    1
    13    21    22    1
    14    22    23    1
    15    23    24   ar
    16    24    25   ar
    17    25    26   ar
    18    26    27   ar
    19    27    28   ar
    20    28    29    1
    21    27    30    1
    22    30    31    1
    23    31    32    1
    24    32    33    2
    25     4     5    1
    26     5     6    1
    27    13    14   ar
    28    14    15   ar
    29    15    16   ar
    30    16    19    1
    31    19    20    3
    32    16    11   ar
    33     6     1    1
    34    28    23   ar
    35    32    26    1
    36     9    10    1
@<TRIPOS>MOLECULE
*****
 33 36 0 0 0
SMALL
GASTEIGER

@<TRIPOS>ATOM
      1 N         138.0800  140.9429  161.1571 N.3     1  UNL1       -0.2679
      2 C         138.6084  142.2892  160.7593 C.3     1  UNL1        0.0897
      3 C         138.5502  143.4336  161.7272 C.3     1  UNL1        0.0897
      4 N         137.9636  143.2318  163.0929 N.3     1  UNL1       -0.2700
      5 C         137.4351  141.8855  163.4908 C.3     1  UNL1        0.0897
      6 C         137.4934  140.7410  162.5228 C.3     1  UNL1        0.0897
      7 C         138.1381  139.7984  160.1892 C.3     1  UNL1        0.1080
      8 C         139.3545  138.9222  160.1360 C.3     1  UNL1        0.1661
      9 O         139.7059  138.2031  158.8674 O.3     1  UNL1       -0.3771
     10 H         139.0490  138.4117  158.1849 H       1  UNL1        0.2109
     11 C         140.5599  137.8862  163.7724 C.ar    1  UNL1        0.1510
     12 C         139.6949  138.0431  162.5569 C.ar    1  UNL1        0.0548
     13 C         140.2194  138.7653  161.3514 C.ar    1  UNL1        0.0901
     14 N         141.6088  139.3305  161.3613 N.ar    1  UNL1       -0.2448
     15 C         142.4737  139.1736  162.5767 C.ar    1  UNL1        0.1118
     16 C         141.9493  138.4514  163.7823 C.ar    1  UNL1        0.1213
     17 C         138.6727  137.4901  165.5137 C.3     1  UNL1        0.2525
     18 O         140.0353  137.1640  164.9780 O.3     1  UNL1       -0.4707
     19 C         142.8142  138.2945  164.9977 C.1     1  UNL1        0.1051
     20 N         143.6791  138.1375  166.2132 N.1     1  UNL1       -0.1907
     21 C         137.9054  144.3763  164.0608 C.3     1  UNL1        0.0769
     22 C         139.0410  144.6127  165.0118 C.3     1  UNL1        0.0433
     23 C         140.3561  143.9243  164.7956 C.ar    1  UNL1       -0.0249
     24 C         140.6702  142.6577  165.5351 C.ar    1  UNL1       -0.0043
     25 C         141.9852  141.9693  165.3189 C.ar    1  UNL1        0.0059
     26 C         142.9862  142.5476  164.3630 C.ar    1  UNL1        0.0748
     27 C         142.6722  143.8142  163.6234 C.ar    1  UNL1        0.0233
     28 C         141.3571  144.5026  163.8397 C.ar    1  UNL1       -0.0260
     29 C         141.0430  145.7693  163.1001 C.3     1  UNL1        0.0305
     30 C         143.8468  144.1452  162.7513 C.3     1  UNL1        0.2352
     31 O         144.8868  143.0831  162.9519 O.3     1  UNL1       -0.4404
     32 C         144.3550  142.0957  163.9480 C.2     1  UNL1        0.3413
     33 O         145.0669  140.8714  164.4423 O.2     1  UNL1       -0.2449
@<TRIPOS>BOND
     1    17    18    1
     2    18    11    1
     3    11    12   ar
     4    12    13   ar
     5    13     8    1
     6     8     9    1
     7     8     7    1
     8     7     1    1
     9     1     2    1
    10     2     3    1
    11     3     4    1
    12     4    21    1
    13    21    22    1
    14    22    23    1
    15    23    24   ar
    16    24    25   ar
    17    25    26   ar
    18    26    27   ar
    19    27    28   ar
    20    28    29    1
    21    27    30    1
    22    30    31    1
    23    31    32    1
    24    32    33    2
    25     4     5    1
    26     5     6    1
    27    13    14   ar
    28    14    15   ar
    29    15    16   ar
    30    16    19    1
    31    19    20    3
    32    16    11   ar
    33     6     1    1
    34    28    23   ar
    35    32    26    1
    36     9    10    1
@<TRIPOS>MOLECULE
*****
 33 36 0 0 0
SMALL
GASTEIGER

@<TRIPOS>ATOM
      1 N         139.1843  140.7810  160.6466 N.3     1  UNL1       -0.2679
      2 C         140.4713  141.4236  160.2213 C.3     1  UNL1        0.0897
      3 C         140.7041  142.8819  160.4839 C.3     1  UNL1        0.0897
      4 N         139.6501  143.6978  161.1718 N.3     1  UNL1       -0.2700
      5 C         138.3631  143.0553  161.5972 C.3     1  UNL1        0.0897
      6 C         138.1303  141.5969  161.3345 C.3     1  UNL1        0.0897
      7 C         138.9514  139.3227  160.3840 C.3     1  UNL1        0.1080
      8 C         138.8064  138.3677  161.5317 C.3     1  UNL1        0.1661
      9 O         137.6007  137.4799  161.6209 O.3     1  UNL1       -0.3771
     10 H         137.0184  137.6483  160.8636 H       1  UNL1        0.2109
     11 C         142.3725  138.3857  163.2732 C.ar    1  UNL1        0.1510
     12 C         141.3116  138.4527  162.2148 C.ar    1  UNL1        0.0548
     13 C         139.8672  138.3007  162.5900 C.ar    1  UNL1        0.0901
     14 N         139.4837  138.0818  164.0236 N.ar    1  UNL1       -0.2448
     15 C         140.5446  138.0149  165.0819 C.ar    1  UNL1        0.1118
     16 C         141.9890  138.1668  164.7067 C.ar    1  UNL1        0.1213
     17 C         144.3888  139.9026  162.6538 C.3     1  UNL1        0.2525
     18 O         143.8168  138.5376  162.8980 O.3     1  UNL1       -0.4707
     19 C         143.0498  138.0998  165.7651 C.1     1  UNL1        0.1051
     20 N         144.1106  138.0328  166.8235 N.1     1  UNL1       -0.1907
     21 C         139.8830  145.1561  161.4344 C.3     1  UNL1        0.0769
     22 C         140.6156  145.5880  162.6701 C.3     1  UNL1        0.0433
     23 C         140.7782  144.6352  163.8172 C.ar    1  UNL1       -0.0249
     24 C         139.6399  144.4023  164.7658 C.ar    1  UNL1       -0.0043
     25 C         139.8025  143.4495  165.9129 C.ar    1  UNL1        0.0059
     26 C         141.1034  142.7297  166.1113 C.ar    1  UNL1        0.0748
     27 C         142.2418  142.9627  165.1627 C.ar    1  UNL1        0.0233
     28 C         142.0792  143.9154  164.0156 C.ar    1  UNL1       -0.0260
     29 C         143.2176  144.1485  163.0670 C.3     1  UNL1        0.0305
     30 C         143.3972  142.1163  165.6084 C.3     1  UNL1        0.2352
     31 O         142.9730  141.3602  166.8325 O.3     1  UNL1       -0.4404
     32 C         141.5553  141.7393  167.1433 C.2     1  UNL1        0.3413
     33 O         140.7338  141.2193  168.2856 O.2     1  UNL1       -0.2449
@<TRIPOS>BOND
     1    17    18    1
     2    18    11    1
     3    11    12   ar
     4    12    13   ar
     5    13     8    1
     6     8     9    1
     7     8     7    1
     8     7     1    1
     9     1     2    1
    10     2     3    1
    11     3     4    1
    12     4    21    1
    13    21    22    1
    14    22    23    1
    15    23    24   ar
    16    24    25   ar
    17    25    26   ar
    18    26    27   ar
    19    27    28   ar
    20    28    29    1
    21    27    30    1
    22    30    31    1
    23    31    32    1
    24    32    33    2
    25     4     5    1
    26     5     6    1
    27    13    14   ar
    28    14    15   ar
    29    15    16   ar
    30    16    19    1
    31    19    20    3
    32    16    11   ar
    33     6     1    1
    34    28    23   ar
    35    32    26    1
    36     9    10    1
@<TRIPOS>MOLECULE
*****
 33 36 0 0 0
SMALL
GASTEIGER

@<TRIPOS>ATOM
      1 N         138.3245  142.1354  164.5784 N.3     1  UNL1       -0.2679
      2 C         138.3630  140.7469  165.1448 C.3     1  UNL1        0.0897
      3 C         139.2520  140.4377  166.3127 C.3     1  UNL1        0.0897
      4 N         140.1025  141.5169  166.9143 N.3     1  UNL1       -0.2700
      5 C         140.0641  142.9054  166.3480 C.3     1  UNL1        0.0897
      6 C         139.1750  143.2146  165.1801 C.3     1  UNL1        0.0897
      7 C         137.4355  142.4446  163.4105 C.3     1  UNL1        0.1080
      8 C         137.7890  141.9374  162.0439 C.3     1  UNL1        0.1661
      9 O         137.2191  140.6387  161.5553 O.3     1  UNL1       -0.3771
     10 H         136.6468  140.2587  162.2402 H       1  UNL1        0.2109
     11 C         140.8235  144.2167  160.8834 C.ar    1  UNL1        0.1510
     12 C         139.9000  143.4252  161.7614 C.ar    1  UNL1        0.0548
     13 C         138.7124  142.7288  161.1659 C.ar    1  UNL1        0.0901
     14 N         138.4482  142.8239  159.6924 N.ar    1  UNL1       -0.2448
     15 C         139.3716  143.6154  158.8144 C.ar    1  UNL1        0.1118
     16 C         140.5593  144.3118  159.4099 C.ar    1  UNL1        0.1213
     17 C         142.5389  144.4848  162.8160 C.3     1  UNL1        0.2525
     18 O         142.0111  144.9130  161.4789 O.3     1  UNL1       -0.4707
     19 C         141.4827  145.1032  158.5319 C.1     1  UNL1        0.1051
     20 N         142.4060  145.8946  157.6538 N.1     1  UNL1       -0.1907
     21 C         140.9915  141.2077  168.0823 C.3     1  UNL1        0.0769
     22 C         142.3921  140.7230  167.8511 C.3     1  UNL1        0.0433
     23 C         142.8005  140.2288  166.4949 C.ar    1  UNL1       -0.0249
     24 C         142.5566  138.7990  166.1129 C.ar    1  UNL1       -0.0043
     25 C         142.9650  138.3048  164.7568 C.ar    1  UNL1        0.0059
     26 C         143.6173  139.2405  163.7827 C.ar    1  UNL1        0.0748
     27 C         143.8612  140.6704  164.1647 C.ar    1  UNL1        0.0233
     28 C         143.4529  141.1646  165.5208 C.ar    1  UNL1       -0.0260
     29 C         143.6968  142.5945  165.9029 C.3     1  UNL1        0.0305
     30 C         144.5191  141.3547  163.0033 C.3     1  UNL1        0.2352
     31 O         144.6817  140.3478  161.9035 O.3     1  UNL1       -0.4404
     32 C         144.1243  139.0411  162.3852 C.2     1  UNL1        0.3413
     33 O         144.0816  137.7600  161.6061 O.2     1  UNL1       -0.2449
@<TRIPOS>BOND
     1    17    18    1
     2    18    11    1
     3    11    12   ar
     4    12    13   ar
     5    13     8    1
     6     8     9    1
     7     8     7    1
     8     7     1    1
     9     1     2    1
    10     2     3    1
    11     3     4    1
    12     4    21    1
    13    21    22    1
    14    22    23    1
    15    23    24   ar
    16    24    25   ar
    17    25    26   ar
    18    26    27   ar
    19    27    28   ar
    20    28    29    1
    21    27    30    1
    22    30    31    1
    23    31    32    1
    24    32    33    2
    25     4     5    1
    26     5     6    1
    27    13    14   ar
    28    14    15   ar
    29    15    16   ar
    30    16    19    1
    31    19    20    3
    32    16    11   ar
    33     6     1    1
    34    28    23   ar
    35    32    26    1
    36     9    10    1
