@<TRIPOS>MOLECULE
*****
 35 38 0 0 0
SMALL
GASTEIGER

@<TRIPOS>ATOM
      1 C         140.1436  139.8795  160.5194 C.ar    1  UNL1        0.1665
      2 N         139.5136  139.2179  161.7091 N.ar    1  UNL1       -0.1866
      3 C         139.0308  140.0486  162.8609 C.ar    1  UNL1        0.2814
      4 O         138.4007  139.3871  164.0507 O.2     1  UNL1       -0.2651
      5 C         139.1781  141.5409  162.8231 C.ar    1  UNL1        0.0699
      6 C         138.6953  142.3716  163.9750 C.ar    1  UNL1        0.0096
      7 C         138.8426  143.8639  163.9372 C.ar    1  UNL1        0.0777
      8 C         139.4727  144.5255  162.7475 C.ar    1  UNL1        0.0797
      9 C         139.9554  143.6947  161.5957 C.ar    1  UNL1        0.2960
     10 C         139.8081  142.2025  161.6335 C.ar    1  UNL1        0.1059
     11 S         140.2909  141.3718  160.4816 S.2     1  UNL1       -0.0466
     12 N         141.5920  137.3874  157.0637 N.3     1  UNL1       -0.2698
     13 C         142.5753  137.9492  158.0474 C.3     1  UNL1        0.0939
     14 C         142.0925  138.7799  159.1992 C.3     1  UNL1        0.1100
     15 N         140.6264  139.0488  159.3675 N.pl3   1  UNL1       -0.2852
     16 C         139.6431  138.4870  158.3838 C.3     1  UNL1        0.1100
     17 C         140.1260  137.6563  157.2319 C.3     1  UNL1        0.0939
     18 C         142.0749  136.5567  155.9118 C.3     1  UNL1        0.0722
     19 N         142.9024  130.6550  156.6082 N.2     1  UNL1       -0.0918
     20 C         142.6955  132.1304  156.4341 C.2     1  UNL1        0.0748
     21 C         143.5175  133.1018  157.2282 C.3     1  UNL1        0.0447
     22 C         143.3106  134.5773  157.0541 C.3     1  UNL1        0.0074
     23 C         142.2817  135.0813  156.0859 C.3     1  UNL1        0.0167
     24 C         141.4597  134.1098  155.2918 C.3     1  UNL1        0.0074
     25 C         141.6666  132.6344  155.4659 C.3     1  UNL1        0.0447
     26 O         143.9312  130.1511  157.5764 O.2     1  UNL1       -0.3779
     27 C         143.1025  128.5163  159.4178 C.3     1  UNL1        0.0543
     28 C         143.8255  128.7594  158.1263 C.3     1  UNL1        0.2386
     29 C         138.3598  144.6946  165.0891 C.3     1  UNL1        0.4188
     30 F         137.8770  145.5254  166.2410 F       1  UNL1       -0.1659
     31 F         137.0554  143.9543  165.0763 F       1  UNL1       -0.1659
     32 F         139.6643  145.4350  165.1019 F       1  UNL1       -0.1659
     33 N         140.5855  144.3563  160.4060 N.pl3   1  UNL1        0.0814
     34 O         142.0447  144.7032  160.4261 O.2     1  UNL1        0.0415
     35 O         139.7564  144.6710  159.1962 O.co2   1  UNL1       -0.5760
@<TRIPOS>UNITY_ATOM_ATTR
33 1
charge 1
35 1
charge -1
@<TRIPOS>BOND
     1    27    28    1
     2    28    26    1
     3    26    19    1
     4    19    20    2
     5    20    21    1
     6    21    22    1
     7    22    23    1
     8    23    18    1
     9    18    12    1
    10    12    13    1
    11    13    14    1
    12    14    15    1
    13    15     1    1
    14     1     2   ar
    15     2     3   ar
    16     3     4    2
    17     3     5   ar
    18     5     6   ar
    19     6     7   ar
    20     7    29    1
    21    29    30    1
    22    29    31    1
    23    29    32    1
    24     7     8   ar
    25     8     9   ar
    26     9    33    1
    27    33    34    2
    28    33    35    1
    29     9    10   ar
    30    10    11   ar
    31    15    16    1
    32    16    17    1
    33    23    24    1
    34    24    25    1
    35    25    20    1
    36    17    12    1
    37    11     1   ar
    38    10     5   ar
@<TRIPOS>MOLECULE
*****
 35 38 0 0 0
SMALL
GASTEIGER

@<TRIPOS>ATOM
      1 C         141.0744  138.9649  162.8448 C.ar    1  UNL1        0.1665
      2 N         139.7117  139.5261  163.1241 N.ar    1  UNL1       -0.1866
      3 C         139.3282  139.9023  164.5246 C.ar    1  UNL1        0.2814
      4 O         137.9654  140.4635  164.8039 O.2     1  UNL1       -0.2651
      5 C         140.3074  139.7174  165.6457 C.ar    1  UNL1        0.0699
      6 C         139.9238  140.0937  167.0462 C.ar    1  UNL1        0.0096
      7 C         140.9030  139.9088  168.1674 C.ar    1  UNL1        0.0777
      8 C         142.2658  139.3477  167.8880 C.ar    1  UNL1        0.0797
      9 C         142.6493  138.9714  166.4876 C.ar    1  UNL1        0.2960
     10 C         141.6701  139.1563  165.3664 C.ar    1  UNL1        0.1059
     11 S         142.0536  138.7801  163.9660 S.2     1  UNL1       -0.0466
     12 N         142.2252  137.8361  158.6434 N.3     1  UNL1       -0.2698
     13 C         143.1464  137.5195  159.7842 C.3     1  UNL1        0.0939
     14 C         142.7628  137.8957  161.1846 C.3     1  UNL1        0.1100
     15 N         141.4580  138.5887  161.4443 N.pl3   1  UNL1       -0.2852
     16 C         140.5369  138.9053  160.3037 C.3     1  UNL1        0.1100
     17 C         140.9205  138.5290  158.9031 C.3     1  UNL1        0.0939
     18 C         142.6089  137.4598  157.2430 C.3     1  UNL1        0.0722
     19 N         141.9183  131.8050  155.3602 N.2     1  UNL1       -0.0918
     20 C         142.0909  133.2187  155.8309 C.2     1  UNL1        0.0748
     21 C         141.2515  134.3131  155.2415 C.3     1  UNL1        0.0447
     22 C         141.4241  135.7269  155.7122 C.3     1  UNL1        0.0074
     23 C         142.4362  136.0461  156.7723 C.3     1  UNL1        0.0167
     24 C         143.2757  134.9516  157.3616 C.3     1  UNL1        0.0074
     25 C         143.1030  133.5379  156.8909 C.3     1  UNL1        0.0447
     26 O         140.9061  131.4857  154.3001 O.2     1  UNL1       -0.3779
     27 C         139.9640  129.0845  154.6110 C.3     1  UNL1        0.0543
     28 C         139.7588  130.5704  154.6099 C.3     1  UNL1        0.2386
     29 C         140.5194  140.2851  169.5678 C.3     1  UNL1        0.4188
     30 F         140.1359  140.6613  170.9684 F       1  UNL1       -0.1659
     31 F         141.3367  139.1445  170.0981 F       1  UNL1       -0.1659
     32 F         139.7022  141.4256  169.0376 F       1  UNL1       -0.1659
     33 N         144.0120  138.4103  166.2083 N.pl3   1  UNL1        0.0814
     34 O         144.8714  139.0230  165.1424 O.2     1  UNL1        0.0415
     35 O         144.5154  137.2364  166.9949 O.co2   1  UNL1       -0.5760
@<TRIPOS>UNITY_ATOM_ATTR
33 1
charge 1
35 1
charge -1
@<TRIPOS>BOND
     1    27    28    1
     2    28    26    1
     3    26    19    1
     4    19    20    2
     5    20    21    1
     6    21    22    1
     7    22    23    1
     8    23    18    1
     9    18    12    1
    10    12    13    1
    11    13    14    1
    12    14    15    1
    13    15     1    1
    14     1     2   ar
    15     2     3   ar
    16     3     4    2
    17     3     5   ar
    18     5     6   ar
    19     6     7   ar
    20     7    29    1
    21    29    30    1
    22    29    31    1
    23    29    32    1
    24     7     8   ar
    25     8     9   ar
    26     9    33    1
    27    33    34    2
    28    33    35    1
    29     9    10   ar
    30    10    11   ar
    31    15    16    1
    32    16    17    1
    33    23    24    1
    34    24    25    1
    35    25    20    1
    36    17    12    1
    37    11     1   ar
    38    10     5   ar
@<TRIPOS>MOLECULE
*****
 35 38 0 0 0
SMALL
GASTEIGER

@<TRIPOS>ATOM
      1 C         140.4881  138.9035  162.4525 C.ar    1  UNL1        0.1665
      2 N         139.6656  137.9417  163.2576 N.ar    1  UNL1       -0.1866
      3 C         139.3736  138.2297  164.7005 C.ar    1  UNL1        0.2814
      4 O         138.5511  137.2678  165.5057 O.2     1  UNL1       -0.2651
      5 C         139.9042  139.4794  165.3381 C.ar    1  UNL1        0.0699
      6 C         139.6122  139.7674  166.7810 C.ar    1  UNL1        0.0096
      7 C         140.1427  141.0172  167.4187 C.ar    1  UNL1        0.0777
      8 C         140.9653  141.9790  166.6134 C.ar    1  UNL1        0.0797
      9 C         141.2572  141.6910  165.1706 C.ar    1  UNL1        0.2960
     10 C         140.7267  140.4413  164.5329 C.ar    1  UNL1        0.1059
     11 S         141.0186  140.1533  163.0901 S.2     1  UNL1       -0.0466
     12 N         141.3641  138.0398  158.1238 N.3     1  UNL1       -0.2698
     13 C         142.4792  138.0503  159.1272 C.3     1  UNL1        0.0939
     14 C         142.1872  138.3383  160.5700 C.3     1  UNL1        0.1100
     15 N         140.7801  138.6156  161.0096 N.pl3   1  UNL1       -0.2852
     16 C         139.6651  138.6050  160.0063 C.3     1  UNL1        0.1100
     17 C         139.9571  138.3171  158.5634 C.3     1  UNL1        0.0939
     18 C         141.6562  137.7518  156.6810 C.3     1  UNL1        0.0722
     19 N         143.2027  132.2094  154.9814 N.2     1  UNL1       -0.0918
     20 C         142.8161  133.5950  155.4063 C.2     1  UNL1        0.0748
     21 C         143.7526  134.4101  156.2479 C.3     1  UNL1        0.0447
     22 C         143.3660  135.7957  156.6728 C.3     1  UNL1        0.0074
     23 C         142.0428  136.3662  156.2561 C.3     1  UNL1        0.0167
     24 C         141.1062  135.5510  155.4144 C.3     1  UNL1        0.0074
     25 C         141.4928  134.1655  154.9895 C.3     1  UNL1        0.0447
     26 O         144.5259  131.6389  155.3981 O.2     1  UNL1       -0.3779
     27 C         145.0484  131.3496  157.9266 C.3     1  UNL1        0.0543
     28 C         144.6165  130.7655  156.6143 C.3     1  UNL1        0.2386
     29 C         139.8508  141.3051  168.8615 C.3     1  UNL1        0.4188
     30 F         139.5588  141.5931  170.3044 F       1  UNL1       -0.1659
     31 F         140.3120  142.7198  168.6725 F       1  UNL1       -0.1659
     32 F         139.3896  139.8904  169.0505 F       1  UNL1       -0.1659
     33 N         142.0797  142.6529  164.3654 N.pl3   1  UNL1        0.0814
     34 O         141.4113  143.7689  163.6186 O.2     1  UNL1        0.0415
     35 O         143.5706  142.4987  164.3070 O.co2   1  UNL1       -0.5760
@<TRIPOS>UNITY_ATOM_ATTR
33 1
charge 1
35 1
charge -1
@<TRIPOS>BOND
     1    27    28    1
     2    28    26    1
     3    26    19    1
     4    19    20    2
     5    20    21    1
     6    21    22    1
     7    22    23    1
     8    23    18    1
     9    18    12    1
    10    12    13    1
    11    13    14    1
    12    14    15    1
    13    15     1    1
    14     1     2   ar
    15     2     3   ar
    16     3     4    2
    17     3     5   ar
    18     5     6   ar
    19     6     7   ar
    20     7    29    1
    21    29    30    1
    22    29    31    1
    23    29    32    1
    24     7     8   ar
    25     8     9   ar
    26     9    33    1
    27    33    34    2
    28    33    35    1
    29     9    10   ar
    30    10    11   ar
    31    15    16    1
    32    16    17    1
    33    23    24    1
    34    24    25    1
    35    25    20    1
    36    17    12    1
    37    11     1   ar
    38    10     5   ar
@<TRIPOS>MOLECULE
*****
 35 38 0 0 0
SMALL
GASTEIGER

@<TRIPOS>ATOM
      1 C         142.3720  139.2596  163.4991 C.ar    1  UNL1        0.1665
      2 N         143.3082  138.4660  164.3616 N.ar    1  UNL1       -0.1866
      3 C         143.2693  138.6234  165.8527 C.ar    1  UNL1        0.2814
      4 O         144.2055  137.8299  166.7153 O.2     1  UNL1       -0.2651
      5 C         142.2944  139.5744  166.4814 C.ar    1  UNL1        0.0699
      6 C         142.2557  139.7318  167.9727 C.ar    1  UNL1        0.0096
      7 C         141.2807  140.6827  168.6014 C.ar    1  UNL1        0.0777
      8 C         140.3446  141.4763  167.7388 C.ar    1  UNL1        0.0797
      9 C         140.3834  141.3189  166.2476 C.ar    1  UNL1        0.2960
     10 C         141.3583  140.3679  165.6189 C.ar    1  UNL1        0.1059
     11 S         141.3971  140.2105  164.1278 S.2     1  UNL1       -0.0466
     12 N         142.4883  138.7874  159.0253 N.3     1  UNL1       -0.2698
     13 C         141.2448  138.4314  159.7851 C.3     1  UNL1        0.0939
     14 C         141.2061  138.5888  161.2763 C.3     1  UNL1        0.1100
     15 N         142.4108  139.1022  162.0078 N.pl3   1  UNL1       -0.2852
     16 C         143.6542  139.4582  161.2481 C.3     1  UNL1        0.1100
     17 C         143.6930  139.3008  159.7569 C.3     1  UNL1        0.0939
     18 C         142.5270  138.6300  157.5342 C.3     1  UNL1        0.0722
     19 N         141.5551  133.2515  155.0591 N.2     1  UNL1       -0.0918
     20 C         141.7981  134.5961  155.6778 C.2     1  UNL1        0.0748
     21 C         142.7991  134.7422  156.7853 C.3     1  UNL1        0.0447
     22 C         143.0422  136.0869  157.4041 C.3     1  UNL1        0.0074
     23 C         142.2841  137.2854  156.9154 C.3     1  UNL1        0.0167
     24 C         141.2829  137.1393  155.8079 C.3     1  UNL1        0.0074
     25 C         141.0400  135.7946  155.1891 C.3     1  UNL1        0.0447
     26 O         142.3132  132.0530  155.5477 O.2     1  UNL1       -0.3779
     27 C         144.8055  131.4388  155.9493 C.3     1  UNL1        0.0543
     28 C         143.6822  131.7605  155.0088 C.3     1  UNL1        0.2386
     29 C         141.2419  140.8401  170.0926 C.3     1  UNL1        0.4188
     30 F         141.2031  140.9975  171.5838 F       1  UNL1       -0.1659
     31 F         140.7733  139.4219  170.2301 F       1  UNL1       -0.1659
     32 F         141.7106  142.2584  169.9550 F       1  UNL1       -0.1659
     33 N         139.4473  142.1124  165.3851 N.pl3   1  UNL1        0.0814
     34 O         139.7924  143.5211  165.0022 O.2     1  UNL1        0.0415
     35 O         138.1660  141.4973  164.9055 O.co2   1  UNL1       -0.5760
@<TRIPOS>UNITY_ATOM_ATTR
33 1
charge 1
35 1
charge -1
@<TRIPOS>BOND
     1    27    28    1
     2    28    26    1
     3    26    19    1
     4    19    20    2
     5    20    21    1
     6    21    22    1
     7    22    23    1
     8    23    18    1
     9    18    12    1
    10    12    13    1
    11    13    14    1
    12    14    15    1
    13    15     1    1
    14     1     2   ar
    15     2     3   ar
    16     3     4    2
    17     3     5   ar
    18     5     6   ar
    19     6     7   ar
    20     7    29    1
    21    29    30    1
    22    29    31    1
    23    29    32    1
    24     7     8   ar
    25     8     9   ar
    26     9    33    1
    27    33    34    2
    28    33    35    1
    29     9    10   ar
    30    10    11   ar
    31    15    16    1
    32    16    17    1
    33    23    24    1
    34    24    25    1
    35    25    20    1
    36    17    12    1
    37    11     1   ar
    38    10     5   ar
@<TRIPOS>MOLECULE
*****
 35 38 0 0 0
SMALL
GASTEIGER

@<TRIPOS>ATOM
      1 C         140.4101  140.5393  159.6253 C.ar    1  UNL1        0.1665
      2 N         140.1644  141.9610  159.2147 N.ar    1  UNL1       -0.1866
      3 C         139.7908  142.9852  160.2449 C.ar    1  UNL1        0.2814
      4 O         139.5451  144.4069  159.8344 O.2     1  UNL1       -0.2651
      5 C         139.6628  142.5878  161.6856 C.ar    1  UNL1        0.0699
      6 C         139.2891  143.6121  162.7158 C.ar    1  UNL1        0.0096
      7 C         139.1611  143.2147  164.1565 C.ar    1  UNL1        0.0777
      8 C         139.4068  141.7930  164.5671 C.ar    1  UNL1        0.0797
      9 C         139.7805  140.7688  163.5369 C.ar    1  UNL1        0.2960
     10 C         139.9085  141.1662  162.0962 C.ar    1  UNL1        0.1059
     11 S         140.2821  140.1419  161.0660 S.2     1  UNL1       -0.0466
     12 N         141.5311  137.4664  156.5347 N.3     1  UNL1       -0.2698
     13 C         140.1125  137.5676  157.0118 C.3     1  UNL1        0.0939
     14 C         139.7389  138.5919  158.0419 C.3     1  UNL1        0.1100
     15 N         140.7838  139.5150  158.5951 N.pl3   1  UNL1       -0.2852
     16 C         142.2023  139.4139  158.1181 C.3     1  UNL1        0.1100
     17 C         142.5760  138.3896  157.0879 C.3     1  UNL1        0.0939
     18 C         141.9047  136.4422  155.5046 C.3     1  UNL1        0.0722
     19 N         143.2794  130.8515  157.1940 N.2     1  UNL1       -0.0918
     20 C         142.9357  132.2491  156.7716 C.2     1  UNL1        0.0748
     21 C         143.6657  133.4145  157.3707 C.3     1  UNL1        0.0447
     22 C         143.3220  134.8123  156.9484 C.3     1  UNL1        0.0074
     23 C         142.2484  135.0445  155.9269 C.3     1  UNL1        0.0167
     24 C         141.5184  133.8790  155.3278 C.3     1  UNL1        0.0074
     25 C         141.8621  132.4814  155.7502 C.3     1  UNL1        0.0447
     26 O         144.3530  130.6192  158.2154 O.2     1  UNL1       -0.3779
     27 C         143.6879  128.5367  159.6193 C.3     1  UNL1        0.0543
     28 C         144.6448  129.2277  158.6937 C.3     1  UNL1        0.2386
     29 C         138.7875  144.2389  165.1867 C.3     1  UNL1        0.4188
     30 F         138.4138  145.2632  166.2169 F       1  UNL1       -0.1659
     31 F         137.6513  144.6957  164.3205 F       1  UNL1       -0.1659
     32 F         139.9236  143.7821  166.0530 F       1  UNL1       -0.1659
     33 N         140.0262  139.3472  163.9475 N.pl3   1  UNL1        0.0814
     34 O         141.4244  138.8751  164.2164 O.2     1  UNL1        0.0415
     35 O         138.8737  138.3976  164.0891 O.co2   1  UNL1       -0.5760
@<TRIPOS>UNITY_ATOM_ATTR
33 1
charge 1
35 1
charge -1
@<TRIPOS>BOND
     1    27    28    1
     2    28    26    1
     3    26    19    1
     4    19    20    2
     5    20    21    1
     6    21    22    1
     7    22    23    1
     8    23    18    1
     9    18    12    1
    10    12    13    1
    11    13    14    1
    12    14    15    1
    13    15     1    1
    14     1     2   ar
    15     2     3   ar
    16     3     4    2
    17     3     5   ar
    18     5     6   ar
    19     6     7   ar
    20     7    29    1
    21    29    30    1
    22    29    31    1
    23    29    32    1
    24     7     8   ar
    25     8     9   ar
    26     9    33    1
    27    33    34    2
    28    33    35    1
    29     9    10   ar
    30    10    11   ar
    31    15    16    1
    32    16    17    1
    33    23    24    1
    34    24    25    1
    35    25    20    1
    36    17    12    1
    37    11     1   ar
    38    10     5   ar
@<TRIPOS>MOLECULE
*****
 35 38 0 0 0
SMALL
GASTEIGER

@<TRIPOS>ATOM
      1 C         142.6119  140.4148  162.2325 C.ar    1  UNL1        0.1665
      2 N         143.8743  141.1451  162.5834 N.ar    1  UNL1       -0.1866
      3 C         144.0448  141.7327  163.9529 C.ar    1  UNL1        0.2814
      4 O         145.3072  142.4630  164.3038 O.2     1  UNL1       -0.2651
      5 C         142.9530  141.5900  164.9715 C.ar    1  UNL1        0.0699
      6 C         143.1236  142.1777  166.3411 C.ar    1  UNL1        0.0096
      7 C         142.0317  142.0350  167.3597 C.ar    1  UNL1        0.0777
      8 C         140.7693  141.3047  167.0087 C.ar    1  UNL1        0.0797
      9 C         140.5988  140.7171  165.6392 C.ar    1  UNL1        0.2960
     10 C         141.6906  140.8598  164.6206 C.ar    1  UNL1        0.1059
     11 S         141.5201  140.2722  163.2511 S.2     1  UNL1       -0.0466
     12 N         142.1002  138.6519  158.1239 N.3     1  UNL1       -0.2698
     13 C         141.0625  138.4080  159.1793 C.3     1  UNL1        0.0939
     14 C         141.2331  138.9956  160.5488 C.3     1  UNL1        0.1100
     15 N         142.4413  139.8272  160.8629 N.pl3   1  UNL1       -0.2852
     16 C         143.4790  140.0711  159.8076 C.3     1  UNL1        0.1100
     17 C         143.3084  139.4834  158.4380 C.3     1  UNL1        0.0939
     18 C         141.9295  138.0642  156.7544 C.3     1  UNL1        0.0722
     19 N         142.5223  132.1505  155.9324 N.2     1  UNL1       -0.0918
     20 C         142.3741  133.6289  156.1379 C.2     1  UNL1        0.0748
     21 C         143.2477  134.3397  157.1286 C.3     1  UNL1        0.0447
     22 C         143.0996  135.8182  157.3341 C.3     1  UNL1        0.0074
     23 C         142.0777  136.5858  156.5489 C.3     1  UNL1        0.0167
     24 C         141.2041  135.8750  155.5581 C.3     1  UNL1        0.0074
     25 C         141.3523  134.3966  155.3527 C.3     1  UNL1        0.0447
     26 O         143.5441  131.3828  156.7176 O.2     1  UNL1       -0.3779
     27 C         144.7069  130.1375  154.7561 C.3     1  UNL1        0.0543
     28 C         144.7947  130.8961  156.0472 C.3     1  UNL1        0.2386
     29 C         142.2023  142.6226  168.7292 C.3     1  UNL1        0.4188
     30 F         142.3728  143.2102  170.0988 F       1  UNL1       -0.1659
     31 F         143.6924  142.5706  168.5660 F       1  UNL1       -0.1659
     32 F         140.7121  142.6746  168.8924 F       1  UNL1       -0.1659
     33 N         139.3365  139.9869  165.2883 N.pl3   1  UNL1        0.0814
     34 O         139.2416  138.5057  165.5058 O.2     1  UNL1        0.0415
     35 O         138.1689  140.7377  164.7200 O.co2   1  UNL1       -0.5760
@<TRIPOS>UNITY_ATOM_ATTR
33 1
charge 1
35 1
charge -1
@<TRIPOS>BOND
     1    27    28    1
     2    28    26    1
     3    26    19    1
     4    19    20    2
     5    20    21    1
     6    21    22    1
     7    22    23    1
     8    23    18    1
     9    18    12    1
    10    12    13    1
    11    13    14    1
    12    14    15    1
    13    15     1    1
    14     1     2   ar
    15     2     3   ar
    16     3     4    2
    17     3     5   ar
    18     5     6   ar
    19     6     7   ar
    20     7    29    1
    21    29    30    1
    22    29    31    1
    23    29    32    1
    24     7     8   ar
    25     8     9   ar
    26     9    33    1
    27    33    34    2
    28    33    35    1
    29     9    10   ar
    30    10    11   ar
    31    15    16    1
    32    16    17    1
    33    23    24    1
    34    24    25    1
    35    25    20    1
    36    17    12    1
    37    11     1   ar
    38    10     5   ar
@<TRIPOS>MOLECULE
*****
 35 38 0 0 0
SMALL
GASTEIGER

@<TRIPOS>ATOM
      1 C         142.1619  143.5783  162.9666 C.ar    1  UNL1        0.1665
      2 N         143.3432  144.1562  163.6880 N.ar    1  UNL1       -0.1866
      3 C         143.7061  143.6551  165.0544 C.ar    1  UNL1        0.2814
      4 O         144.8875  144.2330  165.7759 O.2     1  UNL1       -0.2651
      5 C         142.8878  142.5760  165.6993 C.ar    1  UNL1        0.0699
      6 C         143.2508  142.0748  167.0658 C.ar    1  UNL1        0.0096
      7 C         142.4325  140.9957  167.7107 C.ar    1  UNL1        0.0777
      8 C         141.2512  140.4178  166.9892 C.ar    1  UNL1        0.0797
      9 C         140.8882  140.9190  165.6228 C.ar    1  UNL1        0.2960
     10 C         141.7066  141.9981  164.9779 C.ar    1  UNL1        0.1059
     11 S         141.3436  142.4992  163.6115 S.2     1  UNL1       -0.0466
     12 N         141.0729  145.0817  158.8672 N.3     1  UNL1       -0.2698
     13 C         142.1720  144.0738  159.0290 C.3     1  UNL1        0.0939
     14 C         142.5349  143.5727  160.3954 C.3     1  UNL1        0.1100
     15 N         141.7989  144.0795  161.6001 N.pl3   1  UNL1       -0.2852
     16 C         140.6999  145.0874  161.4384 C.3     1  UNL1        0.1100
     17 C         140.3368  145.5886  160.0720 C.3     1  UNL1        0.0939
     18 C         140.7099  145.5828  157.5008 C.3     1  UNL1        0.0722
     19 N         136.2261  143.0100  154.4552 N.2     1  UNL1       -0.0918
     20 C         137.3471  143.6532  155.2166 C.2     1  UNL1        0.0748
     21 C         138.0982  142.8686  156.2511 C.3     1  UNL1        0.0447
     22 C         139.2192  143.5118  157.0126 C.3     1  UNL1        0.0074
     23 C         139.5890  144.9396  156.7395 C.3     1  UNL1        0.0167
     24 C         138.8378  145.7243  155.7049 C.3     1  UNL1        0.0074
     25 C         137.7169  145.0811  154.9435 C.3     1  UNL1        0.0447
     26 O         135.8563  141.5822  154.7283 O.2     1  UNL1       -0.3779
     27 C         134.0878  139.8311  155.4741 C.3     1  UNL1        0.0543
     28 C         134.5384  141.2579  155.3672 C.3     1  UNL1        0.2386
     29 C         142.7955  140.4946  169.0771 C.3     1  UNL1        0.4188
     30 F         143.1585  139.9933  170.4435 F       1  UNL1       -0.1659
     31 F         141.9943  139.2501  168.8335 F       1  UNL1       -0.1659
     32 F         143.5967  141.7390  169.3207 F       1  UNL1       -0.1659
     33 N         139.7070  140.3410  164.9013 N.pl3   1  UNL1        0.0814
     34 O         138.3443  140.9372  165.0956 O.2     1  UNL1        0.0415
     35 O         139.8883  139.1669  163.9856 O.co2   1  UNL1       -0.5760
@<TRIPOS>UNITY_ATOM_ATTR
33 1
charge 1
35 1
charge -1
@<TRIPOS>BOND
     1    27    28    1
     2    28    26    1
     3    26    19    1
     4    19    20    2
     5    20    21    1
     6    21    22    1
     7    22    23    1
     8    23    18    1
     9    18    12    1
    10    12    13    1
    11    13    14    1
    12    14    15    1
    13    15     1    1
    14     1     2   ar
    15     2     3   ar
    16     3     4    2
    17     3     5   ar
    18     5     6   ar
    19     6     7   ar
    20     7    29    1
    21    29    30    1
    22    29    31    1
    23    29    32    1
    24     7     8   ar
    25     8     9   ar
    26     9    33    1
    27    33    34    2
    28    33    35    1
    29     9    10   ar
    30    10    11   ar
    31    15    16    1
    32    16    17    1
    33    23    24    1
    34    24    25    1
    35    25    20    1
    36    17    12    1
    37    11     1   ar
    38    10     5   ar
@<TRIPOS>MOLECULE
*****
 35 38 0 0 0
SMALL
GASTEIGER

@<TRIPOS>ATOM
      1 C         141.4213  144.0248  160.7563 C.ar    1  UNL1        0.1665
      2 N         142.8759  143.9971  161.1215 N.ar    1  UNL1       -0.1866
      3 C         143.2930  143.6177  162.5114 C.ar    1  UNL1        0.2814
      4 O         144.7477  143.5899  162.8767 O.2     1  UNL1       -0.2651
      5 C         142.2556  143.2661  163.5362 C.ar    1  UNL1        0.0699
      6 C         142.6728  142.8867  164.9262 C.ar    1  UNL1        0.0096
      7 C         141.6354  142.5351  165.9509 C.ar    1  UNL1        0.0777
      8 C         140.1808  142.5628  165.5857 C.ar    1  UNL1        0.0797
      9 C         139.7636  142.9422  164.1957 C.ar    1  UNL1        0.2960
     10 C         140.8010  143.2938  163.1710 C.ar    1  UNL1        0.1059
     11 S         140.3839  143.6732  161.7810 S.2     1  UNL1       -0.0466
     12 N         140.1697  145.1630  156.5863 N.3     1  UNL1       -0.2698
     13 C         141.3167  145.8709  157.2447 C.3     1  UNL1        0.0939
     14 C         141.7338  145.4915  158.6346 C.3     1  UNL1        0.1100
     15 N         141.0041  144.4042  159.3663 N.pl3   1  UNL1       -0.2852
     16 C         139.8572  143.6963  158.7079 C.3     1  UNL1        0.1100
     17 C         139.4400  144.0757  157.3179 C.3     1  UNL1        0.0939
     18 C         139.7525  145.5424  155.1964 C.3     1  UNL1        0.0722
     19 N         139.7064  151.3112  153.5476 N.2     1  UNL1       -0.0918
     20 C         139.7179  149.8691  153.9598 C.2     1  UNL1        0.0748
     21 C         140.5173  148.8712  153.1754 C.3     1  UNL1        0.0447
     22 C         140.5288  147.4290  153.5876 C.3     1  UNL1        0.0074
     23 C         139.7410  146.9846  154.7842 C.3     1  UNL1        0.0167
     24 C         138.9416  147.9825  155.5686 C.3     1  UNL1        0.0074
     25 C         138.9301  149.4247  155.1564 C.3     1  UNL1        0.0447
     26 O         140.4942  151.7556  152.3510 O.2     1  UNL1       -0.3779
     27 C         142.4547  152.5647  153.8517 C.3     1  UNL1        0.0543
     28 C         141.9309  152.1582  152.5062 C.3     1  UNL1        0.2386
     29 C         142.0526  142.1557  167.3409 C.3     1  UNL1        0.4188
     30 F         142.4697  141.7763  168.7309 F       1  UNL1       -0.1659
     31 F         140.6406  141.7603  167.6567 F       1  UNL1       -0.1659
     32 F         143.4646  142.5511  167.0250 F       1  UNL1       -0.1659
     33 N         138.3091  142.9700  163.8305 N.pl3   1  UNL1        0.0814
     34 O         137.5288  144.2451  163.9547 O.2     1  UNL1        0.0415
     35 O         137.6347  141.7227  163.3412 O.co2   1  UNL1       -0.5760
@<TRIPOS>UNITY_ATOM_ATTR
33 1
charge 1
35 1
charge -1
@<TRIPOS>BOND
     1    27    28    1
     2    28    26    1
     3    26    19    1
     4    19    20    2
     5    20    21    1
     6    21    22    1
     7    22    23    1
     8    23    18    1
     9    18    12    1
    10    12    13    1
    11    13    14    1
    12    14    15    1
    13    15     1    1
    14     1     2   ar
    15     2     3   ar
    16     3     4    2
    17     3     5   ar
    18     5     6   ar
    19     6     7   ar
    20     7    29    1
    21    29    30    1
    22    29    31    1
    23    29    32    1
    24     7     8   ar
    25     8     9   ar
    26     9    33    1
    27    33    34    2
    28    33    35    1
    29     9    10   ar
    30    10    11   ar
    31    15    16    1
    32    16    17    1
    33    23    24    1
    34    24    25    1
    35    25    20    1
    36    17    12    1
    37    11     1   ar
    38    10     5   ar
@<TRIPOS>MOLECULE
*****
 35 38 0 0 0
SMALL
GASTEIGER

@<TRIPOS>ATOM
      1 C         143.4693  141.9998  162.9488 C.ar    1  UNL1        0.1665
      2 N         144.2242  143.0543  163.7025 N.ar    1  UNL1       -0.1866
      3 C         144.1622  143.0946  165.2007 C.ar    1  UNL1        0.2814
      4 O         144.9171  144.1491  165.9545 O.2     1  UNL1       -0.2651
      5 C         143.3453  142.0804  165.9451 C.ar    1  UNL1        0.0699
      6 C         143.2834  142.1208  167.4434 C.ar    1  UNL1        0.0096
      7 C         142.4665  141.1066  168.1878 C.ar    1  UNL1        0.0777
      8 C         141.7116  140.0521  167.4340 C.ar    1  UNL1        0.0797
      9 C         141.7736  140.0117  165.9358 C.ar    1  UNL1        0.2960
     10 C         142.5904  141.0259  165.1914 C.ar    1  UNL1        0.1059
     11 S         142.6524  140.9856  163.6933 S.2     1  UNL1       -0.0466
     12 N         143.6551  141.8786  158.4542 N.3     1  UNL1       -0.2698
     13 C         143.8931  140.6287  159.2487 C.3     1  UNL1        0.0939
     14 C         143.8311  140.6691  160.7469 C.3     1  UNL1        0.1100
     15 N         143.5312  141.9594  161.4506 N.pl3   1  UNL1       -0.2852
     16 C         143.2932  143.2093  160.6562 C.3     1  UNL1        0.1100
     17 C         143.3552  143.1689  159.1580 C.3     1  UNL1        0.0939
     18 C         143.7171  141.8382  156.9561 C.3     1  UNL1        0.0722
     19 N         149.0323  141.6995  154.1761 N.2     1  UNL1       -0.0918
     20 C         147.7035  141.7342  154.8711 C.2     1  UNL1        0.0748
     21 C         147.6002  142.2784  156.2650 C.3     1  UNL1        0.0447
     22 C         146.2713  142.3131  156.9601 C.3     1  UNL1        0.0074
     23 C         145.0459  141.8036  156.2611 C.3     1  UNL1        0.0167
     24 C         145.1492  141.2593  154.8671 C.3     1  UNL1        0.0074
     25 C         146.4780  141.2246  154.1721 C.3     1  UNL1        0.0447
     26 O         150.2578  142.2091  154.8750 O.2     1  UNL1       -0.3779
     27 C         151.4095  143.7745  153.1507 C.3     1  UNL1        0.0543
     28 C         151.4683  142.5976  154.0789 C.3     1  UNL1        0.2386
     29 C         142.4045  141.1469  169.6859 C.3     1  UNL1        0.4188
     30 F         142.3425  141.1872  171.1842 F       1  UNL1       -0.1659
     31 F         141.5308  139.9277  169.6826 F       1  UNL1       -0.1659
     32 F         143.2783  142.3661  169.6893 F       1  UNL1       -0.1659
     33 N         141.0187  138.9572  165.1821 N.pl3   1  UNL1        0.0814
     34 O         139.6121  139.2193  164.7316 O.2     1  UNL1        0.0415
     35 O         141.6703  137.6406  164.8790 O.co2   1  UNL1       -0.5760
@<TRIPOS>UNITY_ATOM_ATTR
33 1
charge 1
35 1
charge -1
@<TRIPOS>BOND
     1    27    28    1
     2    28    26    1
     3    26    19    1
     4    19    20    2
     5    20    21    1
     6    21    22    1
     7    22    23    1
     8    23    18    1
     9    18    12    1
    10    12    13    1
    11    13    14    1
    12    14    15    1
    13    15     1    1
    14     1     2   ar
    15     2     3   ar
    16     3     4    2
    17     3     5   ar
    18     5     6   ar
    19     6     7   ar
    20     7    29    1
    21    29    30    1
    22    29    31    1
    23    29    32    1
    24     7     8   ar
    25     8     9   ar
    26     9    33    1
    27    33    34    2
    28    33    35    1
    29     9    10   ar
    30    10    11   ar
    31    15    16    1
    32    16    17    1
    33    23    24    1
    34    24    25    1
    35    25    20    1
    36    17    12    1
    37    11     1   ar
    38    10     5   ar
