@<TRIPOS>MOLECULE
*****
 30 34 0 0 0
SMALL
GASTEIGER

@<TRIPOS>ATOM
      1 C         140.7931  140.7400  166.4947 C.2     1  UNL1        0.3756
      2 N         140.7095  141.2375  165.0821 N.2     1  UNL1       -0.0230
      3 C         140.0612  140.1692  164.2521 C.2     1  UNL1        0.3133
      4 C         139.7187  140.1010  162.7933 C.2     1  UNL1        0.3703
      5 N         139.0591  138.8753  162.2343 N.2     1  UNL1       -0.0367
      6 C         138.7422  137.7178  163.1340 C.2     1  UNL1        0.2179
      7 C         139.0847  137.7859  164.5928 C.3     1  UNL1        0.1552
      8 C         139.7443  139.0116  165.1518 C.2     1  UNL1        0.2294
      9 N         140.1966  139.3644  166.5378 N.2     1  UNL1       -0.0343
     10 F         143.1073  143.7281  171.1548 F       1  UNL1       -0.2018
     11 C         142.5287  142.9811  169.9897 C.ar    1  UNL1        0.1674
     12 C         143.2943  141.8504  169.3689 C.ar    1  UNL1        0.0322
     13 C         142.7158  141.1034  168.2039 C.ar    1  UNL1        0.0101
     14 C         141.3717  141.4871  167.6597 C.ar    1  UNL1        0.0908
     15 C         140.6061  142.6178  168.2806 C.ar    1  UNL1        0.0396
     16 C         141.1846  143.3648  169.4455 C.ar    1  UNL1        0.1676
     17 F         140.4190  144.4955  170.0664 F       1  UNL1       -0.2018
     18 N         140.0357  141.2587  161.8936 N.pl3   1  UNL1       -0.1872
     19 C         139.1727  142.4854  161.9175 C.3     1  UNL1        0.2025
     20 C         139.4897  143.6430  161.0178 C.3     1  UNL1        0.0523
     21 C         140.6697  143.5739  160.0942 C.3     1  UNL1        0.0242
     22 C         141.5326  142.3472  160.0704 C.3     1  UNL1        0.0523
     23 C         141.2156  141.1896  160.9701 C.3     1  UNL1        0.2025
     24 C         140.9867  144.7315  159.1945 C.3     1  UNL1        0.0725
     25 N         140.1951  144.9436  157.9382 N.3     1  UNL1       -0.2685
     26 C         139.4936  143.7874  157.2895 C.3     1  UNL1        0.1046
     27 C         138.7020  143.9996  156.0332 C.3     1  UNL1        0.1595
     28 O         138.6119  145.3680  155.4256 O.3     1  UNL1       -0.3508
     29 C         139.3135  146.5243  156.0743 C.3     1  UNL1        0.1595
     30 C         140.1051  146.3121  157.3306 C.3     1  UNL1        0.1046
@<TRIPOS>BOND
     1    10    11    1
     2    11    12   ar
     3    12    13   ar
     4    13    14   ar
     5    14     1    1
     6     1     2    2
     7     2     3    1
     8     3     4    2
     9     4    18    1
    10    18    19    1
    11    19    20    1
    12    20    21    1
    13    21    24    1
    14    24    25    1
    15    25    26    1
    16    26    27    1
    17    27    28    1
    18    28    29    1
    19    29    30    1
    20    21    22    1
    21    22    23    1
    22     4     5    1
    23     5     6    2
    24     6     7    1
    25     7     8    1
    26     8     9    2
    27    14    15   ar
    28    15    16   ar
    29    16    17    1
    30    16    11   ar
    31     9     1    1
    32     8     3    1
    33    23    18    1
    34    30    25    1
@<TRIPOS>MOLECULE
*****
 30 34 0 0 0
SMALL
GASTEIGER

@<TRIPOS>ATOM
      1 C         141.0262  140.5769  166.5546 C.2     1  UNL1        0.3756
      2 N         141.4648  140.7244  165.1278 N.2     1  UNL1       -0.0230
      3 C         140.6968  139.7352  164.3021 C.2     1  UNL1        0.3133
      4 C         140.7110  139.4274  162.8341 C.2     1  UNL1        0.3703
      5 N         139.8121  138.3607  162.2827 N.2     1  UNL1       -0.0367
      6 C         138.8990  137.6018  163.1992 C.2     1  UNL1        0.2179
      7 C         138.8847  137.9096  164.6673 C.3     1  UNL1        0.1552
      8 C         139.7836  138.9762  165.2187 C.2     1  UNL1        0.2294
      9 N         139.9872  139.4964  166.6108 N.2     1  UNL1       -0.0343
     10 F         143.0692  143.7510  171.2184 F       1  UNL1       -0.2018
     11 C         142.5584  142.9575  170.0524 C.ar    1  UNL1        0.1674
     12 C         143.3608  141.8082  169.5182 C.ar    1  UNL1        0.0322
     13 C         142.8501  141.0147  168.3523 C.ar    1  UNL1        0.0101
     14 C         141.5370  141.3704  167.7206 C.ar    1  UNL1        0.0908
     15 C         140.7346  142.5197  168.2548 C.ar    1  UNL1        0.0396
     16 C         141.2453  143.3132  169.4207 C.ar    1  UNL1        0.1676
     17 F         140.4429  144.4624  169.9549 F       1  UNL1       -0.2018
     18 N         141.6242  140.1864  161.9175 N.pl3   1  UNL1       -0.1872
     19 C         141.0719  141.2636  161.0318 C.3     1  UNL1        0.2025
     20 C         141.9851  142.0226  160.1152 C.3     1  UNL1        0.0523
     21 C         143.4506  141.7043  160.0844 C.3     1  UNL1        0.0242
     22 C         144.0029  140.6271  160.9702 C.3     1  UNL1        0.0523
     23 C         143.0897  139.8681  161.8867 C.3     1  UNL1        0.2025
     24 C         144.3638  142.4632  159.1679 C.3     1  UNL1        0.0725
     25 N         144.8596  141.8236  157.9050 N.3     1  UNL1       -0.2685
     26 C         146.0816  142.3617  157.2214 C.3     1  UNL1        0.1046
     27 C         146.5774  141.7221  155.9584 C.3     1  UNL1        0.1595
     28 O         145.8513  140.5444  155.3790 O.3     1  UNL1       -0.3508
     29 C         144.6293  140.0063  156.0626 C.3     1  UNL1        0.1595
     30 C         144.1335  140.6459  157.3255 C.3     1  UNL1        0.1046
@<TRIPOS>BOND
     1    10    11    1
     2    11    12   ar
     3    12    13   ar
     4    13    14   ar
     5    14     1    1
     6     1     2    2
     7     2     3    1
     8     3     4    2
     9     4    18    1
    10    18    19    1
    11    19    20    1
    12    20    21    1
    13    21    24    1
    14    24    25    1
    15    25    26    1
    16    26    27    1
    17    27    28    1
    18    28    29    1
    19    29    30    1
    20    21    22    1
    21    22    23    1
    22     4     5    1
    23     5     6    2
    24     6     7    1
    25     7     8    1
    26     8     9    2
    27    14    15   ar
    28    15    16   ar
    29    16    17    1
    30    16    11   ar
    31     9     1    1
    32     8     3    1
    33    23    18    1
    34    30    25    1
@<TRIPOS>MOLECULE
*****
 30 34 0 0 0
SMALL
GASTEIGER

@<TRIPOS>ATOM
      1 C         143.6257  135.2086  156.4570 C.2     1  UNL1        0.3756
      2 N         142.8665  135.9198  157.5376 N.2     1  UNL1       -0.0230
      3 C         142.8573  137.3839  157.2109 C.2     1  UNL1        0.3133
      4 C         142.2600  138.5657  157.9157 C.2     1  UNL1        0.3703
      5 N         142.4163  139.9411  157.3379 N.2     1  UNL1       -0.0367
      6 C         143.1697  140.1346  156.0554 C.2     1  UNL1        0.2179
      7 C         143.7669  138.9528  155.3507 C.3     1  UNL1        0.1552
      8 C         143.6107  137.5774  155.9285 C.2     1  UNL1        0.2294
      9 N         144.0856  136.2331  155.4625 N.2     1  UNL1       -0.0343
     10 F         144.6442  129.3029  156.1639 F       1  UNL1       -0.2018
     11 C         144.3896  130.7794  156.2372 C.ar    1  UNL1        0.1674
     12 C         143.6831  131.4754  155.1118 C.ar    1  UNL1        0.0322
     13 C         143.4284  132.9518  155.1851 C.ar    1  UNL1        0.0101
     14 C         143.8803  133.7322  156.3837 C.ar    1  UNL1        0.0908
     15 C         144.5869  133.0362  157.5090 C.ar    1  UNL1        0.0396
     16 C         144.8415  131.5598  157.4358 C.ar    1  UNL1        0.1676
     17 F         145.5481  130.8638  158.5611 F       1  UNL1       -0.2018
     18 N         141.5066  138.3721  159.1982 N.pl3   1  UNL1       -0.1872
     19 C         142.2469  138.0432  160.4606 C.3     1  UNL1        0.2025
     20 C         141.4934  137.8496  161.7432 C.3     1  UNL1        0.0523
     21 C         139.9997  137.9849  161.7633 C.3     1  UNL1        0.0242
     22 C         139.2594  138.3138  160.5007 C.3     1  UNL1        0.0523
     23 C         140.0128  138.5074  159.2183 C.3     1  UNL1        0.2025
     24 C         139.2462  137.7913  163.0457 C.3     1  UNL1        0.0725
     25 N         139.2334  138.8781  164.0794 N.3     1  UNL1       -0.2685
     26 C         138.4246  140.1206  163.8513 C.3     1  UNL1        0.1046
     27 C         138.4118  141.2075  164.8851 C.3     1  UNL1        0.1595
     28 O         139.2078  141.0518  166.1469 O.3     1  UNL1       -0.3508
     29 C         140.0167  139.8093  166.3749 C.3     1  UNL1        0.1595
     30 C         140.0295  138.7225  165.3413 C.3     1  UNL1        0.1046
@<TRIPOS>BOND
     1    10    11    1
     2    11    12   ar
     3    12    13   ar
     4    13    14   ar
     5    14     1    1
     6     1     2    2
     7     2     3    1
     8     3     4    2
     9     4    18    1
    10    18    19    1
    11    19    20    1
    12    20    21    1
    13    21    24    1
    14    24    25    1
    15    25    26    1
    16    26    27    1
    17    27    28    1
    18    28    29    1
    19    29    30    1
    20    21    22    1
    21    22    23    1
    22     4     5    1
    23     5     6    2
    24     6     7    1
    25     7     8    1
    26     8     9    2
    27    14    15   ar
    28    15    16   ar
    29    16    17    1
    30    16    11   ar
    31     9     1    1
    32     8     3    1
    33    23    18    1
    34    30    25    1
@<TRIPOS>MOLECULE
*****
 30 34 0 0 0
SMALL
GASTEIGER

@<TRIPOS>ATOM
      1 C         143.3026  134.9063  156.0756 C.2     1  UNL1        0.3756
      2 N         142.5941  135.7355  157.1053 N.2     1  UNL1       -0.0230
      3 C         142.9858  137.1684  156.8960 C.2     1  UNL1        0.3133
      4 C         142.5996  138.4291  157.6112 C.2     1  UNL1        0.3703
      5 N         143.1640  139.7461  157.1673 N.2     1  UNL1       -0.0367
      6 C         144.1146  139.8023  156.0084 C.2     1  UNL1        0.2179
      7 C         144.5008  138.5415  155.2933 C.3     1  UNL1        0.1552
      8 C         143.9363  137.2246  155.7371 C.2     1  UNL1        0.2294
      9 N         144.1322  135.8265  155.2301 N.2     1  UNL1       -0.0343
     10 F         142.8909  128.9533  155.4491 F       1  UNL1       -0.2018
     11 C         142.9938  130.4416  155.6057 C.ar    1  UNL1        0.1674
     12 C         144.3118  131.0702  155.9490 C.ar    1  UNL1        0.0322
     13 C         144.4147  132.5584  156.1057 C.ar    1  UNL1        0.0101
     14 C         143.1997  133.4180  155.9190 C.ar    1  UNL1        0.0908
     15 C         141.8818  132.7893  155.5757 C.ar    1  UNL1        0.0396
     16 C         141.7788  131.3011  155.4190 C.ar    1  UNL1        0.1676
     17 F         140.4609  130.6725  155.0757 F       1  UNL1       -0.2018
     18 N         141.6489  138.3729  158.7701 N.pl3   1  UNL1       -0.1872
     19 C         142.1753  138.2014  160.1642 C.3     1  UNL1        0.2025
     20 C         141.2246  138.1451  161.3232 C.3     1  UNL1        0.0523
     21 C         139.7477  138.2604  161.0880 C.3     1  UNL1        0.0242
     22 C         139.2213  138.4319  159.6939 C.3     1  UNL1        0.0523
     23 C         140.1720  138.4881  158.5350 C.3     1  UNL1        0.2025
     24 C         138.7970  138.2041  162.2469 C.3     1  UNL1        0.0725
     25 N         138.4976  139.4465  163.0323 N.3     1  UNL1       -0.2685
     26 C         138.9758  139.5720  164.4485 C.3     1  UNL1        0.1046
     27 C         138.6764  140.8145  165.2339 C.3     1  UNL1        0.1595
     28 O         137.8988  141.9313  164.6031 O.3     1  UNL1       -0.3508
     29 C         137.4206  141.8058  163.1869 C.3     1  UNL1        0.1595
     30 C         137.7200  140.5634  162.4015 C.3     1  UNL1        0.1046
@<TRIPOS>BOND
     1    10    11    1
     2    11    12   ar
     3    12    13   ar
     4    13    14   ar
     5    14     1    1
     6     1     2    2
     7     2     3    1
     8     3     4    2
     9     4    18    1
    10    18    19    1
    11    19    20    1
    12    20    21    1
    13    21    24    1
    14    24    25    1
    15    25    26    1
    16    26    27    1
    17    27    28    1
    18    28    29    1
    19    29    30    1
    20    21    22    1
    21    22    23    1
    22     4     5    1
    23     5     6    2
    24     6     7    1
    25     7     8    1
    26     8     9    2
    27    14    15   ar
    28    15    16   ar
    29    16    17    1
    30    16    11   ar
    31     9     1    1
    32     8     3    1
    33    23    18    1
    34    30    25    1
@<TRIPOS>MOLECULE
*****
 30 34 0 0 0
SMALL
GASTEIGER

@<TRIPOS>ATOM
      1 C         140.7968  142.0809  166.4285 C.2     1  UNL1        0.3756
      2 N         140.9627  141.6149  165.0124 N.2     1  UNL1       -0.0230
      3 C         140.0874  142.4645  164.1393 C.2     1  UNL1        0.3133
      4 C         139.8426  142.4636  162.6594 C.2     1  UNL1        0.3703
      5 N         138.8912  143.4539  162.0560 N.2     1  UNL1       -0.0367
      6 C         138.1844  144.4449  162.9325 C.2     1  UNL1        0.2179
      7 C         138.4292  144.4457  164.4124 C.3     1  UNL1        0.1552
      8 C         139.3806  143.4555  165.0158 C.2     1  UNL1        0.2294
      9 N         139.8191  143.2185  166.4306 N.2     1  UNL1       -0.0343
     10 F         143.5594  139.7961  171.2398 F       1  UNL1       -0.2018
     11 C         142.8687  140.3673  170.0369 C.ar    1  UNL1        0.1674
     12 C         141.6802  139.6649  169.4505 C.ar    1  UNL1        0.0322
     13 C         140.9896  140.2361  168.2477 C.ar    1  UNL1        0.0101
     14 C         141.4875  141.5097  167.6313 C.ar    1  UNL1        0.0908
     15 C         142.6760  142.2121  168.2178 C.ar    1  UNL1        0.0396
     16 C         143.3666  141.6410  169.4206 C.ar    1  UNL1        0.1676
     17 F         144.5552  142.3434  170.0070 F       1  UNL1       -0.2018
     18 N         140.5494  141.4725  161.7829 N.pl3   1  UNL1       -0.1872
     19 C         140.3300  140.0025  161.9847 C.3     1  UNL1        0.2025
     20 C         141.0368  139.0113  161.1082 C.3     1  UNL1        0.0523
     21 C         141.9630  139.4904  160.0299 C.3     1  UNL1        0.0242
     22 C         142.1824  140.9605  159.8282 C.3     1  UNL1        0.0523
     23 C         141.4756  141.9515  160.7047 C.3     1  UNL1        0.2025
     24 C         142.6698  138.4993  159.1535 C.3     1  UNL1        0.0725
     25 N         141.9311  137.8271  158.0344 N.3     1  UNL1       -0.2685
     26 C         142.6089  136.7662  157.2189 C.3     1  UNL1        0.1046
     27 C         141.8701  136.0940  156.0998 C.3     1  UNL1        0.1595
     28 O         140.4535  136.4827  155.7962 O.3     1  UNL1       -0.3508
     29 C         139.7757  137.5436  156.6117 C.3     1  UNL1        0.1595
     30 C         140.5144  138.2158  157.7308 C.3     1  UNL1        0.1046
@<TRIPOS>BOND
     1    10    11    1
     2    11    12   ar
     3    12    13   ar
     4    13    14   ar
     5    14     1    1
     6     1     2    2
     7     2     3    1
     8     3     4    2
     9     4    18    1
    10    18    19    1
    11    19    20    1
    12    20    21    1
    13    21    24    1
    14    24    25    1
    15    25    26    1
    16    26    27    1
    17    27    28    1
    18    28    29    1
    19    29    30    1
    20    21    22    1
    21    22    23    1
    22     4     5    1
    23     5     6    2
    24     6     7    1
    25     7     8    1
    26     8     9    2
    27    14    15   ar
    28    15    16   ar
    29    16    17    1
    30    16    11   ar
    31     9     1    1
    32     8     3    1
    33    23    18    1
    34    30    25    1
@<TRIPOS>MOLECULE
*****
 30 34 0 0 0
SMALL
GASTEIGER

@<TRIPOS>ATOM
      1 C         143.7572  138.4442  170.7748 C.2     1  UNL1        0.3756
      2 N         143.1067  138.4670  169.4234 N.2     1  UNL1       -0.0230
      3 C         142.5746  139.8497  169.1884 C.2     1  UNL1        0.3133
      4 C         141.8388  140.4587  168.0319 C.2     1  UNL1        0.3703
      5 N         141.4246  141.8995  168.0814 N.2     1  UNL1       -0.0367
      6 C         141.7462  142.7312  169.2875 C.2     1  UNL1        0.2179
      7 C         142.4821  142.1222  170.4440 C.3     1  UNL1        0.1552
      8 C         142.8963  140.6814  170.3945 C.2     1  UNL1        0.2294
      9 N         143.6271  139.8128  171.3750 N.2     1  UNL1       -0.0343
     10 F         146.4132  133.7103  173.3314 F       1  UNL1       -0.2018
     11 C         145.7492  134.8938  172.6922 C.ar    1  UNL1        0.1674
     12 C         144.6846  134.6874  171.6559 C.ar    1  UNL1        0.0322
     13 C         144.0206  135.8709  171.0168 C.ar    1  UNL1        0.0101
     14 C         144.4212  137.2607  171.4140 C.ar    1  UNL1        0.0908
     15 C         145.4858  137.4671  172.4503 C.ar    1  UNL1        0.0396
     16 C         146.1498  136.2837  173.0894 C.ar    1  UNL1        0.1676
     17 F         147.2145  136.4901  174.1258 F       1  UNL1       -0.2018
     18 N         141.5171  139.6269  166.8257 N.pl3   1  UNL1       -0.1872
     19 C         140.0971  139.4996  166.3594 C.3     1  UNL1        0.2025
     20 C         139.7755  138.6678  165.1533 C.3     1  UNL1        0.0523
     21 C         140.8738  137.9633  164.4135 C.3     1  UNL1        0.0242
     22 C         142.2939  138.0907  164.8798 C.3     1  UNL1        0.0523
     23 C         142.6155  138.9225  166.0859 C.3     1  UNL1        0.2025
     24 C         140.5523  137.1315  163.2074 C.3     1  UNL1        0.0725
     25 N         140.6096  137.7420  161.8385 N.3     1  UNL1       -0.2685
     26 C         141.9325  137.9360  161.1586 C.3     1  UNL1        0.1046
     27 C         141.9898  138.5464  159.7896 C.3     1  UNL1        0.1595
     28 O         140.7242  138.9628  159.1005 O.3     1  UNL1       -0.3508
     29 C         139.4013  138.7688  159.7804 C.3     1  UNL1        0.1595
     30 C         139.3440  138.1583  161.1493 C.3     1  UNL1        0.1046
@<TRIPOS>BOND
     1    10    11    1
     2    11    12   ar
     3    12    13   ar
     4    13    14   ar
     5    14     1    1
     6     1     2    2
     7     2     3    1
     8     3     4    2
     9     4    18    1
    10    18    19    1
    11    19    20    1
    12    20    21    1
    13    21    24    1
    14    24    25    1
    15    25    26    1
    16    26    27    1
    17    27    28    1
    18    28    29    1
    19    29    30    1
    20    21    22    1
    21    22    23    1
    22     4     5    1
    23     5     6    2
    24     6     7    1
    25     7     8    1
    26     8     9    2
    27    14    15   ar
    28    15    16   ar
    29    16    17    1
    30    16    11   ar
    31     9     1    1
    32     8     3    1
    33    23    18    1
    34    30    25    1
@<TRIPOS>MOLECULE
*****
 30 34 0 0 0
SMALL
GASTEIGER

@<TRIPOS>ATOM
      1 C         140.8543  141.0761  164.4533 C.2     1  UNL1        0.3756
      2 N         140.8167  141.6193  163.0556 N.2     1  UNL1       -0.0230
      3 C         141.8297  142.7215  162.9593 C.2     1  UNL1        0.3133
      4 C         142.2335  143.6173  161.8259 C.2     1  UNL1        0.3703
      5 N         143.3010  144.6510  162.0306 N.2     1  UNL1       -0.0367
      6 C         143.9646  144.7889  163.3687 C.2     1  UNL1        0.2179
      7 C         143.5608  143.8931  164.5021 C.3     1  UNL1        0.1552
      8 C         142.4934  142.8594  164.2973 C.2     1  UNL1        0.2294
      9 N         141.8906  141.8425  165.2207 N.2     1  UNL1       -0.0343
     10 F         137.4566  136.6201  166.5980 F       1  UNL1       -0.2018
     11 C         138.3060  137.7341  166.0618 C.ar    1  UNL1        0.1674
     12 C         139.0112  137.5738  164.7476 C.ar    1  UNL1        0.0322
     13 C         139.8606  138.6877  164.2115 C.ar    1  UNL1        0.0101
     14 C         140.0049  139.9621  164.9894 C.ar    1  UNL1        0.0908
     15 C         139.2997  140.1224  166.3036 C.ar    1  UNL1        0.0396
     16 C         138.4503  139.0084  166.8398 C.ar    1  UNL1        0.1676
     17 F         137.7451  139.1688  168.1539 F       1  UNL1       -0.2018
     18 N         141.5698  143.4793  160.4878 N.pl3   1  UNL1       -0.1872
     19 C         141.8219  142.2627  159.6474 C.3     1  UNL1        0.2025
     20 C         141.1582  142.1247  158.3093 C.3     1  UNL1        0.0523
     21 C         140.2424  143.2035  157.8116 C.3     1  UNL1        0.0242
     22 C         139.9904  144.4202  158.6520 C.3     1  UNL1        0.0523
     23 C         140.6541  144.5581  159.9900 C.3     1  UNL1        0.2025
     24 C         139.5787  143.0656  156.4735 C.3     1  UNL1        0.0725
     25 N         138.5872  141.9650  156.2381 N.3     1  UNL1       -0.2685
     26 C         138.9956  140.7371  155.4794 C.3     1  UNL1        0.1046
     27 C         138.0039  139.6365  155.2439 C.3     1  UNL1        0.1595
     28 O         136.6040  139.7638  155.7672 O.3     1  UNL1       -0.3508
     29 C         136.1956  140.9916  156.5259 C.3     1  UNL1        0.1595
     30 C         137.1871  142.0922  156.7613 C.3     1  UNL1        0.1046
@<TRIPOS>BOND
     1    10    11    1
     2    11    12   ar
     3    12    13   ar
     4    13    14   ar
     5    14     1    1
     6     1     2    2
     7     2     3    1
     8     3     4    2
     9     4    18    1
    10    18    19    1
    11    19    20    1
    12    20    21    1
    13    21    24    1
    14    24    25    1
    15    25    26    1
    16    26    27    1
    17    27    28    1
    18    28    29    1
    19    29    30    1
    20    21    22    1
    21    22    23    1
    22     4     5    1
    23     5     6    2
    24     6     7    1
    25     7     8    1
    26     8     9    2
    27    14    15   ar
    28    15    16   ar
    29    16    17    1
    30    16    11   ar
    31     9     1    1
    32     8     3    1
    33    23    18    1
    34    30    25    1
@<TRIPOS>MOLECULE
*****
 30 34 0 0 0
SMALL
GASTEIGER

@<TRIPOS>ATOM
      1 C         142.6815  135.4868  156.6731 C.2     1  UNL1        0.3756
      2 N         142.8766  136.3708  157.8691 N.2     1  UNL1       -0.0230
      3 C         142.0494  137.6066  157.6719 C.2     1  UNL1        0.3133
      4 C         141.8481  138.8258  158.5221 C.2     1  UNL1        0.3703
      5 N         140.9405  139.9247  158.0546 N.2     1  UNL1       -0.0367
      6 C         140.2342  139.8044  156.7368 C.2     1  UNL1        0.2179
      7 C         140.4355  138.5851  155.8866 C.3     1  UNL1        0.1552
      8 C         141.3431  137.4862  156.3541 C.2     1  UNL1        0.2294
      9 N         141.7337  136.1762  155.7368 N.2     1  UNL1       -0.0343
     10 F         145.2425  130.1333  155.7893 F       1  UNL1       -0.2018
     11 C         144.6022  131.4717  156.0102 C.ar    1  UNL1        0.1674
     12 C         143.6932  132.0497  154.9664 C.ar    1  UNL1        0.0322
     13 C         143.0530  133.3881  155.1874 C.ar    1  UNL1        0.0101
     14 C         143.3218  134.1484  156.4521 C.ar    1  UNL1        0.0908
     15 C         144.2308  133.5704  157.4959 C.ar    1  UNL1        0.0396
     16 C         144.8710  132.2320  157.2750 C.ar    1  UNL1        0.1676
     17 F         145.7801  131.6540  158.3188 F       1  UNL1       -0.2018
     18 N         142.5544  138.9461  159.8400 N.pl3   1  UNL1       -0.1872
     19 C         142.3210  137.9235  160.9122 C.3     1  UNL1        0.2025
     20 C         143.0273  138.0438  162.2300 C.3     1  UNL1        0.0523
     21 C         143.9671  139.1868  162.4756 C.3     1  UNL1        0.0242
     22 C         144.2006  140.2095  161.4033 C.3     1  UNL1        0.0523
     23 C         143.4942  140.0891  160.0856 C.3     1  UNL1        0.2025
     24 C         144.6735  139.3071  163.7934 C.3     1  UNL1        0.0725
     25 N         143.9264  139.7826  165.0041 N.3     1  UNL1       -0.2685
     26 C         143.6338  141.2433  165.1791 C.3     1  UNL1        0.1046
     27 C         142.8867  141.7187  166.3899 C.3     1  UNL1        0.1595
     28 O         142.4322  140.7334  167.4255 O.3     1  UNL1       -0.3508
     29 C         142.7247  139.2727  167.2504 C.3     1  UNL1        0.1595
     30 C         143.4718  138.7972  166.0398 C.3     1  UNL1        0.1046
@<TRIPOS>BOND
     1    10    11    1
     2    11    12   ar
     3    12    13   ar
     4    13    14   ar
     5    14     1    1
     6     1     2    2
     7     2     3    1
     8     3     4    2
     9     4    18    1
    10    18    19    1
    11    19    20    1
    12    20    21    1
    13    21    24    1
    14    24    25    1
    15    25    26    1
    16    26    27    1
    17    27    28    1
    18    28    29    1
    19    29    30    1
    20    21    22    1
    21    22    23    1
    22     4     5    1
    23     5     6    2
    24     6     7    1
    25     7     8    1
    26     8     9    2
    27    14    15   ar
    28    15    16   ar
    29    16    17    1
    30    16    11   ar
    31     9     1    1
    32     8     3    1
    33    23    18    1
    34    30    25    1
@<TRIPOS>MOLECULE
*****
 30 34 0 0 0
SMALL
GASTEIGER

@<TRIPOS>ATOM
      1 C         143.7996  140.0480  160.4427 C.2     1  UNL1        0.3756
      2 N         143.5127  139.1067  159.3107 N.2     1  UNL1       -0.0230
      3 C         143.6348  139.8740  158.0275 C.2     1  UNL1        0.3133
      4 C         143.4628  139.4666  156.5942 C.2     1  UNL1        0.3703
      5 N         143.6531  140.4746  155.4999 N.2     1  UNL1       -0.0367
      6 C         144.0154  141.8902  155.8389 C.2     1  UNL1        0.2179
      7 C         144.1873  142.2976  157.2722 C.3     1  UNL1        0.1552
      8 C         143.9970  141.2895  158.3665 C.2     1  UNL1        0.2294
      9 N         144.0989  141.3971  159.8592 N.2     1  UNL1       -0.0343
     10 F         143.7571  138.6609  166.2800 F       1  UNL1       -0.2018
     11 C         143.7677  139.0077  164.8206 C.ar    1  UNL1        0.1674
     12 C         144.7603  140.0009  164.2930 C.ar    1  UNL1        0.0322
     13 C         144.7709  140.3477  162.8337 C.ar    1  UNL1        0.0101
     14 C         143.7890  139.7013  161.9021 C.ar    1  UNL1        0.0908
     15 C         142.7964  138.7081  162.4297 C.ar    1  UNL1        0.0396
     16 C         142.7858  138.3613  163.8890 C.ar    1  UNL1        0.1676
     17 F         141.7933  137.3681  164.4167 F       1  UNL1       -0.2018
     18 N         143.1006  138.0509  156.2552 N.pl3   1  UNL1       -0.1872
     19 C         144.1366  137.1273  155.6866 C.3     1  UNL1        0.2025
     20 C         143.7744  135.7116  155.3476 C.3     1  UNL1        0.0523
     21 C         142.3760  135.2198  155.5772 C.3     1  UNL1        0.0242
     22 C         141.3400  136.1435  156.1458 C.3     1  UNL1        0.0523
     23 C         141.7022  137.5591  156.4848 C.3     1  UNL1        0.2025
     24 C         142.0138  133.8042  155.2382 C.3     1  UNL1        0.0725
     25 N         142.9304  132.6821  155.6260 N.3     1  UNL1       -0.2685
     26 C         143.4544  131.7454  154.5781 C.3     1  UNL1        0.1046
     27 C         144.3711  130.6232  154.9660 C.3     1  UNL1        0.1595
     28 O         144.7638  130.4377  156.4017 O.3     1  UNL1       -0.3508
     29 C         144.2398  131.3744  157.4496 C.3     1  UNL1        0.1595
     30 C         143.3231  132.4965  157.0618 C.3     1  UNL1        0.1046
@<TRIPOS>BOND
     1    10    11    1
     2    11    12   ar
     3    12    13   ar
     4    13    14   ar
     5    14     1    1
     6     1     2    2
     7     2     3    1
     8     3     4    2
     9     4    18    1
    10    18    19    1
    11    19    20    1
    12    20    21    1
    13    21    24    1
    14    24    25    1
    15    25    26    1
    16    26    27    1
    17    27    28    1
    18    28    29    1
    19    29    30    1
    20    21    22    1
    21    22    23    1
    22     4     5    1
    23     5     6    2
    24     6     7    1
    25     7     8    1
    26     8     9    2
    27    14    15   ar
    28    15    16   ar
    29    16    17    1
    30    16    11   ar
    31     9     1    1
    32     8     3    1
    33    23    18    1
    34    30    25    1
