@<TRIPOS>MOLECULE
*****
 40 45 0 0 0
SMALL
GASTEIGER

@<TRIPOS>ATOM
      1 N         141.9327  137.9275  158.7838 N.ar    1  UNL1       -0.2264
      2 C         142.1614  137.6180  160.2336 C.ar    1  UNL1        0.1212
      3 C         141.1820  138.4197  161.0387 C.ar    1  UNL1        0.1260
      4 N         140.9419  138.5207  162.5159 N.ar    1  UNL1       -0.2248
      5 C         139.8677  139.4267  163.0408 C.ar    1  UNL1        0.1472
      6 N         139.0338  140.2315  162.0886 N.ar    1  UNL1       -0.2792
      7 C         139.2740  140.1305  160.6115 C.ar    1  UNL1        0.2829
      8 O         138.4400  140.9353  159.6593 O.2     1  UNL1       -0.2652
      9 C         140.3481  139.2246  160.0865 C.ar    1  UNL1        0.1762
     10 N         140.8120  138.9204  158.6928 N.ar    1  UNL1       -0.1586
     11 C         139.6275  139.5277  164.5181 C.ar    1  UNL1        0.0478
     12 C         138.4870  138.7822  165.1452 C.ar    1  UNL1        0.0058
     13 C         138.2468  138.8833  166.6224 C.ar    1  UNL1        0.0208
     14 C         139.1472  139.7298  167.4725 C.ar    1  UNL1        0.0984
     15 N         140.2878  140.4753  166.8453 N.ar    1  UNL1       -0.2480
     16 C         140.5280  140.3743  165.3682 C.ar    1  UNL1        0.0623
     17 C         141.6685  141.1198  164.7410 C.3     1  UNL1        0.0522
     18 C         143.6789  135.2845  156.3931 C.ar    1  UNL1        0.1401
     19 C         144.2091  136.1835  155.3158 C.ar    1  UNL1        0.0370
     20 C         143.9806  137.6639  155.3945 C.ar    1  UNL1        0.0047
     21 C         143.2218  138.2452  156.5505 C.ar    1  UNL1        0.0194
     22 C         142.6915  137.3461  157.6278 C.ar    1  UNL1        0.0859
     23 C         142.9201  135.8658  157.5491 C.ar    1  UNL1        0.0560
     24 O         143.9074  133.8041  156.3144 O.3     1  UNL1       -0.4754
     25 C         142.7700  132.8865  155.9762 C.3     1  UNL1        0.2054
     26 C         141.7941  133.6231  153.6838 C.3     1  UNL1        0.0040
     27 C         141.6197  133.3890  155.1552 C.3     1  UNL1        0.0473
     28 C         137.9596  141.1374  162.6136 C.3     1  UNL1        0.1119
     29 C         138.3271  142.4378  163.2646 C.3     1  UNL1        0.0388
     30 C         137.5071  142.9636  164.4053 C.3     1  UNL1        0.0048
     31 C         137.8746  144.2640  165.0564 C.3     1  UNL1        0.0174
     32 C         139.0621  145.0386  164.5668 C.3     1  UNL1        0.0722
     33 N         139.8822  144.5128  163.4261 N.3     1  UNL1       -0.2706
     34 C         139.5147  143.2125  162.7750 C.3     1  UNL1        0.0741
     35 C         141.0698  145.2875  162.9365 C.3     1  UNL1        0.1020
     36 C         142.4216  144.6391  162.8918 C.3     1  UNL1        0.1312
     37 C         143.3171  144.3855  164.0683 C.3     1  UNL1        0.0336
     38 C         144.5643  143.7201  163.5665 C.3     1  UNL1        0.0346
     39 C         144.4397  143.5624  162.0800 C.3     1  UNL1        0.1422
     40 O         143.1155  144.1304  161.6630 O.3     1  UNL1       -0.3548
@<TRIPOS>BOND
     1    26    27    1
     2    27    25    1
     3    25    24    1
     4    24    18    1
     5    18    19   ar
     6    19    20   ar
     7    20    21   ar
     8    21    22   ar
     9    22     1    1
    10     1     2   ar
    11     2     3   ar
    12     3     4   ar
    13     4     5   ar
    14     5    11    1
    15    11    12   ar
    16    12    13   ar
    17    13    14   ar
    18    14    15   ar
    19    15    16   ar
    20    16    17    1
    21     5     6   ar
    22     6    28    1
    23    29    28    1
    24    29    30    1
    25    30    31    1
    26    31    32    1
    27    32    33    1
    28    33    35    1
    29    36    35    1
    30    36    37    1
    31    37    38    1
    32    38    39    1
    33    39    40    1
    34    33    34    1
    35     6     7   ar
    36     7     8    2
    37     7     9   ar
    38     9    10   ar
    39    22    23   ar
    40    23    18   ar
    41    10     1   ar
    42     9     3   ar
    43    16    11   ar
    44    34    29    1
    45    40    36    1
@<TRIPOS>MOLECULE
*****
 40 45 0 0 0
SMALL
GASTEIGER

@<TRIPOS>ATOM
      1 N         141.7327  145.2367  156.8837 N.ar    1  UNL1       -0.2264
      2 C         142.6663  144.1231  157.2557 C.ar    1  UNL1        0.1212
      3 C         142.5872  143.9288  158.7410 C.ar    1  UNL1        0.1260
      4 N         143.2829  142.9755  159.6669 N.ar    1  UNL1       -0.2248
      5 C         142.9961  143.0158  161.1387 C.ar    1  UNL1        0.1472
      6 N         142.0137  144.0091  161.6845 N.ar    1  UNL1       -0.2792
      7 C         141.3180  144.9624  160.7586 C.ar    1  UNL1        0.2829
      8 O         140.3356  145.9558  161.3045 O.2     1  UNL1       -0.2652
      9 C         141.6048  144.9222  159.2868 C.ar    1  UNL1        0.1762
     10 N         141.0767  145.7305  158.1389 N.ar    1  UNL1       -0.1586
     11 C         143.6918  142.0625  162.0647 C.ar    1  UNL1        0.0478
     12 C         144.9712  142.4671  162.7350 C.ar    1  UNL1        0.0058
     13 C         145.6669  141.5139  163.6610 C.ar    1  UNL1        0.0208
     14 C         145.0831  140.1560  163.9166 C.ar    1  UNL1        0.0984
     15 N         143.8037  139.7513  163.2463 N.ar    1  UNL1       -0.2480
     16 C         143.1080  140.7046  162.3203 C.ar    1  UNL1        0.0623
     17 C         141.8286  140.2999  161.6500 C.3     1  UNL1        0.0522
     18 C         140.3496  147.4639  153.9043 C.ar    1  UNL1        0.1401
     19 C         141.0245  146.8181  152.7306 C.ar    1  UNL1        0.0370
     20 C         141.9355  145.6452  152.9413 C.ar    1  UNL1        0.0047
     21 C         142.1715  145.1181  154.3256 C.ar    1  UNL1        0.0194
     22 C         141.4966  145.7638  155.4993 C.ar    1  UNL1        0.0859
     23 C         140.5857  146.9367  155.2887 C.ar    1  UNL1        0.0560
     24 O         139.4386  148.6368  153.6936 O.3     1  UNL1       -0.4754
     25 C         139.9137  150.0227  154.0155 C.3     1  UNL1        0.2054
     26 C         138.3285  150.1512  156.0699 C.3     1  UNL1        0.0040
     27 C         139.2116  150.8311  155.0660 C.3     1  UNL1        0.0473
     28 C         141.7269  144.0494  163.1564 C.3     1  UNL1        0.1119
     29 C         140.3312  143.8191  163.6550 C.3     1  UNL1        0.0388
     30 C         139.6928  144.8106  164.5821 C.3     1  UNL1        0.0048
     31 C         138.2970  144.5804  165.0808 C.3     1  UNL1        0.0174
     32 C         137.5395  143.3587  164.6525 C.3     1  UNL1        0.0722
     33 N         138.1779  142.3671  163.7254 N.3     1  UNL1       -0.2706
     34 C         139.5736  142.5973  163.2267 C.3     1  UNL1        0.0741
     35 C         137.4203  141.1452  163.2971 C.3     1  UNL1        0.1020
     36 C         138.0374  139.7871  163.4536 C.3     1  UNL1        0.1312
     37 C         138.3560  138.8302  162.3431 C.3     1  UNL1        0.0336
     38 C         138.9597  137.5990  162.9511 C.3     1  UNL1        0.0346
     39 C         139.0143  137.7949  164.4373 C.3     1  UNL1        0.1422
     40 O         138.4443  139.1472  164.7478 O.3     1  UNL1       -0.3548
@<TRIPOS>BOND
     1    26    27    1
     2    27    25    1
     3    25    24    1
     4    24    18    1
     5    18    19   ar
     6    19    20   ar
     7    20    21   ar
     8    21    22   ar
     9    22     1    1
    10     1     2   ar
    11     2     3   ar
    12     3     4   ar
    13     4     5   ar
    14     5    11    1
    15    11    12   ar
    16    12    13   ar
    17    13    14   ar
    18    14    15   ar
    19    15    16   ar
    20    16    17    1
    21     5     6   ar
    22     6    28    1
    23    29    28    1
    24    29    30    1
    25    30    31    1
    26    31    32    1
    27    32    33    1
    28    33    35    1
    29    36    35    1
    30    36    37    1
    31    37    38    1
    32    38    39    1
    33    39    40    1
    34    33    34    1
    35     6     7   ar
    36     7     8    2
    37     7     9   ar
    38     9    10   ar
    39    22    23   ar
    40    23    18   ar
    41    10     1   ar
    42     9     3   ar
    43    16    11   ar
    44    34    29    1
    45    40    36    1
@<TRIPOS>MOLECULE
*****
 40 45 0 0 0
SMALL
GASTEIGER

@<TRIPOS>ATOM
      1 N         140.0439  145.1130  158.3906 N.ar    1  UNL1       -0.2264
      2 C         140.7086  145.4916  159.6809 C.ar    1  UNL1        0.1212
      3 C         140.3566  144.4540  160.7054 C.ar    1  UNL1        0.1260
      4 N         140.7254  144.3061  162.1518 N.ar    1  UNL1       -0.2248
      5 C         140.2121  143.1384  162.9410 C.ar    1  UNL1        0.1472
      6 N         139.3300  142.1186  162.2839 N.ar    1  UNL1       -0.2792
      7 C         138.9611  142.2665  160.8376 C.ar    1  UNL1        0.2829
      8 O         138.0790  141.2467  160.1804 O.2     1  UNL1       -0.2652
      9 C         139.4744  143.4342  160.0483 C.ar    1  UNL1        0.1762
     10 N         139.2812  143.8415  158.6176 N.ar    1  UNL1       -0.1586
     11 C         140.5809  142.9904  164.3875 C.ar    1  UNL1        0.0478
     12 C         141.8670  142.3191  164.7687 C.ar    1  UNL1        0.0058
     13 C         142.2358  142.1712  166.2151 C.ar    1  UNL1        0.0208
     14 C         141.3186  142.6946  167.2803 C.ar    1  UNL1        0.0984
     15 N         140.0325  143.3660  166.8991 N.ar    1  UNL1       -0.2480
     16 C         139.6637  143.5139  165.4527 C.ar    1  UNL1        0.0623
     17 C         138.3776  144.1852  165.0716 C.3     1  UNL1        0.0522
     18 C         139.3185  147.8151  155.5759 C.ar    1  UNL1        0.1401
     19 C         140.2942  147.3917  154.5182 C.ar    1  UNL1        0.0370
     20 C         141.1865  146.2087  154.7513 C.ar    1  UNL1        0.0047
     21 C         141.1030  145.4491  156.0421 C.ar    1  UNL1        0.0194
     22 C         140.1273  145.8726  157.0998 C.ar    1  UNL1        0.0859
     23 C         139.2350  147.0556  156.8667 C.ar    1  UNL1        0.0560
     24 O         138.4262  148.9981  155.3428 O.3     1  UNL1       -0.4754
     25 C         138.8417  150.3571  155.8232 C.3     1  UNL1        0.2054
     26 C         140.9537  151.2342  154.5903 C.3     1  UNL1        0.0040
     27 C         139.4834  151.3245  154.8733 C.3     1  UNL1        0.0473
     28 C         138.8166  140.9508  163.0732 C.3     1  UNL1        0.1119
     29 C         139.6441  139.7057  163.1946 C.3     1  UNL1        0.0388
     30 C         139.0304  138.4468  163.7317 C.3     1  UNL1        0.0048
     31 C         139.8579  137.2016  163.8532 C.3     1  UNL1        0.0174
     32 C         141.2991  137.2153  163.4375 C.3     1  UNL1        0.0722
     33 N         141.9128  138.4744  162.9004 N.3     1  UNL1       -0.2706
     34 C         141.0853  139.7195  162.7790 C.3     1  UNL1        0.0741
     35 C         143.3541  138.4881  162.4847 C.3     1  UNL1        0.1020
     36 C         144.2125  139.6785  162.7942 C.3     1  UNL1        0.1312
     37 C         144.9179  139.9435  164.0913 C.3     1  UNL1        0.0336
     38 C         145.6577  141.2417  163.9598 C.3     1  UNL1        0.0346
     39 C         145.4097  141.7791  162.5815 C.3     1  UNL1        0.1422
     40 O         144.5165  140.8130  161.8612 O.3     1  UNL1       -0.3548
@<TRIPOS>BOND
     1    26    27    1
     2    27    25    1
     3    25    24    1
     4    24    18    1
     5    18    19   ar
     6    19    20   ar
     7    20    21   ar
     8    21    22   ar
     9    22     1    1
    10     1     2   ar
    11     2     3   ar
    12     3     4   ar
    13     4     5   ar
    14     5    11    1
    15    11    12   ar
    16    12    13   ar
    17    13    14   ar
    18    14    15   ar
    19    15    16   ar
    20    16    17    1
    21     5     6   ar
    22     6    28    1
    23    29    28    1
    24    29    30    1
    25    30    31    1
    26    31    32    1
    27    32    33    1
    28    33    35    1
    29    36    35    1
    30    36    37    1
    31    37    38    1
    32    38    39    1
    33    39    40    1
    34    33    34    1
    35     6     7   ar
    36     7     8    2
    37     7     9   ar
    38     9    10   ar
    39    22    23   ar
    40    23    18   ar
    41    10     1   ar
    42     9     3   ar
    43    16    11   ar
    44    34    29    1
    45    40    36    1
@<TRIPOS>MOLECULE
*****
 40 45 0 0 0
SMALL
GASTEIGER

@<TRIPOS>ATOM
      1 N         141.5998  136.8303  156.5880 N.ar    1  UNL1       -0.2264
      2 C         140.3056  137.3628  157.1279 C.ar    1  UNL1        0.1212
      3 C         140.6265  138.4204  158.1420 C.ar    1  UNL1        0.1260
      4 N         139.7525  139.2887  158.9975 N.ar    1  UNL1       -0.2248
      5 C         140.3711  140.2783  159.9400 C.ar    1  UNL1        0.1472
      6 N         141.8636  140.3994  160.0269 N.ar    1  UNL1       -0.2792
      7 C         142.7376  139.5311  159.1714 C.ar    1  UNL1        0.2829
      8 O         144.2302  139.6523  159.2583 O.2     1  UNL1       -0.2652
      9 C         142.1191  138.5416  158.2289 C.ar    1  UNL1        0.1762
     10 N         142.7206  137.5588  157.2685 N.ar    1  UNL1       -0.1586
     11 C         139.4970  141.1467  160.7956 C.ar    1  UNL1        0.0478
     12 C         139.0673  140.6730  162.1524 C.ar    1  UNL1        0.0058
     13 C         138.1933  141.5413  163.0080 C.ar    1  UNL1        0.0208
     14 C         137.7489  142.8835  162.5067 C.ar    1  UNL1        0.0984
     15 N         138.1786  143.3572  161.1499 N.ar    1  UNL1       -0.2480
     16 C         139.0526  142.4888  160.2944 C.ar    1  UNL1        0.0623
     17 C         139.4823  142.9626  158.9376 C.3     1  UNL1        0.0522
     18 C         142.3574  133.3147  154.9097 C.ar    1  UNL1        0.1401
     19 C         142.0424  133.6123  153.4737 C.ar    1  UNL1        0.0370
     20 C         141.5798  134.9826  153.0758 C.ar    1  UNL1        0.0047
     21 C         141.4323  136.0552  154.1139 C.ar    1  UNL1        0.0194
     22 C         141.7473  135.7576  155.5500 C.ar    1  UNL1        0.0859
     23 C         142.2099  134.3874  155.9479 C.ar    1  UNL1        0.0560
     24 O         142.8200  131.9445  155.3076 O.3     1  UNL1       -0.4754
     25 C         144.2861  131.6576  155.4426 C.3     1  UNL1        0.2054
     26 C         144.8811  132.5885  157.7940 C.3     1  UNL1        0.0040
     27 C         144.8904  131.4637  156.8017 C.3     1  UNL1        0.0473
     28 C         142.4822  141.3890  160.9694 C.3     1  UNL1        0.1119
     29 C         143.2136  140.9085  162.1875 C.3     1  UNL1        0.0388
     30 C         144.6515  141.2820  162.3949 C.3     1  UNL1        0.0048
     31 C         145.3831  140.8014  163.6131 C.3     1  UNL1        0.0174
     32 C         144.6767  139.9475  164.6239 C.3     1  UNL1        0.0722
     33 N         143.2387  139.5740  164.4165 N.3     1  UNL1       -0.2706
     34 C         142.5073  140.0545  163.1984 C.3     1  UNL1        0.0741
     35 C         142.5323  138.7199  165.4274 C.3     1  UNL1        0.1020
     36 C         141.0431  138.5542  165.3596 C.3     1  UNL1        0.1312
     37 C         140.3084  137.4834  164.6087 C.3     1  UNL1        0.0336
     38 C         138.8383  137.6976  164.8158 C.3     1  UNL1        0.0346
     39 C         138.6643  138.9006  165.6946 C.3     1  UNL1        0.1422
     40 O         140.0269  139.4301  166.0307 O.3     1  UNL1       -0.3548
@<TRIPOS>BOND
     1    26    27    1
     2    27    25    1
     3    25    24    1
     4    24    18    1
     5    18    19   ar
     6    19    20   ar
     7    20    21   ar
     8    21    22   ar
     9    22     1    1
    10     1     2   ar
    11     2     3   ar
    12     3     4   ar
    13     4     5   ar
    14     5    11    1
    15    11    12   ar
    16    12    13   ar
    17    13    14   ar
    18    14    15   ar
    19    15    16   ar
    20    16    17    1
    21     5     6   ar
    22     6    28    1
    23    29    28    1
    24    29    30    1
    25    30    31    1
    26    31    32    1
    27    32    33    1
    28    33    35    1
    29    36    35    1
    30    36    37    1
    31    37    38    1
    32    38    39    1
    33    39    40    1
    34    33    34    1
    35     6     7   ar
    36     7     8    2
    37     7     9   ar
    38     9    10   ar
    39    22    23   ar
    40    23    18   ar
    41    10     1   ar
    42     9     3   ar
    43    16    11   ar
    44    34    29    1
    45    40    36    1
@<TRIPOS>MOLECULE
*****
 40 45 0 0 0
SMALL
GASTEIGER

@<TRIPOS>ATOM
      1 N         140.4727  145.8662  158.0673 N.ar    1  UNL1       -0.2264
      2 C         141.7320  145.0986  158.3409 C.ar    1  UNL1        0.1212
      3 C         141.6325  144.5218  159.7220 C.ar    1  UNL1        0.1260
      4 N         142.5739  143.6753  160.5264 N.ar    1  UNL1       -0.2248
      5 C         142.1945  143.2400  161.9108 C.ar    1  UNL1        0.1472
      6 N         140.8738  143.6512  162.4908 N.ar    1  UNL1       -0.2792
      7 C         139.9323  144.4977  161.6864 C.ar    1  UNL1        0.2829
      8 O         138.6115  144.9089  162.2664 O.2     1  UNL1       -0.2652
      9 C         140.3117  144.9330  160.3020 C.ar    1  UNL1        0.1762
     10 N         139.5949  145.7639  159.2793 N.ar    1  UNL1       -0.1586
     11 C         143.1360  142.3935  162.7153 C.ar    1  UNL1        0.0478
     12 C         143.1752  140.9087  162.5055 C.ar    1  UNL1        0.0058
     13 C         144.1167  140.0623  163.3099 C.ar    1  UNL1        0.0208
     14 C         145.0189  140.7005  164.3241 C.ar    1  UNL1        0.0984
     15 N         144.9797  142.1852  164.5339 N.ar    1  UNL1       -0.2480
     16 C         144.0383  143.0317  163.7295 C.ar    1  UNL1        0.0623
     17 C         143.9991  144.5164  163.9393 C.3     1  UNL1        0.0522
     18 C         138.9062  148.5323  155.5798 C.ar    1  UNL1        0.1401
     19 C         139.4991  148.0864  154.2761 C.ar    1  UNL1        0.0370
     20 C         140.4166  146.9004  154.2361 C.ar    1  UNL1        0.0047
     21 C         140.7411  146.1603  155.4999 C.ar    1  UNL1        0.0194
     22 C         140.1482  146.6063  156.8036 C.ar    1  UNL1        0.0859
     23 C         139.2307  147.7923  156.8436 C.ar    1  UNL1        0.0560
     24 O         137.9887  149.7184  155.6197 O.3     1  UNL1       -0.4754
     25 C         138.5400  151.0837  155.9060 C.3     1  UNL1        0.2054
     26 C         139.9413  151.9999  153.9193 C.3     1  UNL1        0.0040
     27 C         138.7213  152.0686  154.7894 C.3     1  UNL1        0.0473
     28 C         140.4944  143.2159  163.8753 C.3     1  UNL1        0.1119
     29 C         139.8393  141.8837  164.0895 C.3     1  UNL1        0.0388
     30 C         139.3276  141.1022  162.9159 C.3     1  UNL1        0.0048
     31 C         138.6724  139.7699  163.1301 C.3     1  UNL1        0.0174
     32 C         138.5291  139.2192  164.5180 C.3     1  UNL1        0.0722
     33 N         139.0409  140.0007  165.6916 N.3     1  UNL1       -0.2706
     34 C         139.6959  141.3329  165.4774 C.3     1  UNL1        0.0741
     35 C         138.8975  139.4499  167.0795 C.3     1  UNL1        0.1020
     36 C         139.7965  139.9379  168.1766 C.3     1  UNL1        0.1312
     37 C         139.3572  140.6157  169.4406 C.3     1  UNL1        0.0336
     38 C         140.5818  140.9304  170.2476 C.3     1  UNL1        0.0346
     39 C         141.7780  140.4471  169.4824 C.3     1  UNL1        0.1422
     40 O         141.2927  139.8337  168.2025 O.3     1  UNL1       -0.3548
@<TRIPOS>BOND
     1    26    27    1
     2    27    25    1
     3    25    24    1
     4    24    18    1
     5    18    19   ar
     6    19    20   ar
     7    20    21   ar
     8    21    22   ar
     9    22     1    1
    10     1     2   ar
    11     2     3   ar
    12     3     4   ar
    13     4     5   ar
    14     5    11    1
    15    11    12   ar
    16    12    13   ar
    17    13    14   ar
    18    14    15   ar
    19    15    16   ar
    20    16    17    1
    21     5     6   ar
    22     6    28    1
    23    29    28    1
    24    29    30    1
    25    30    31    1
    26    31    32    1
    27    32    33    1
    28    33    35    1
    29    36    35    1
    30    36    37    1
    31    37    38    1
    32    38    39    1
    33    39    40    1
    34    33    34    1
    35     6     7   ar
    36     7     8    2
    37     7     9   ar
    38     9    10   ar
    39    22    23   ar
    40    23    18   ar
    41    10     1   ar
    42     9     3   ar
    43    16    11   ar
    44    34    29    1
    45    40    36    1
@<TRIPOS>MOLECULE
*****
 40 45 0 0 0
SMALL
GASTEIGER

@<TRIPOS>ATOM
      1 N         141.7437  136.5811  156.3899 N.ar    1  UNL1       -0.2264
      2 C         142.9866  136.8100  157.1978 C.ar    1  UNL1        0.1212
      3 C         142.6294  137.6905  158.3584 C.ar    1  UNL1        0.1260
      4 N         143.4478  138.2459  159.4861 N.ar    1  UNL1       -0.2248
      5 C         142.8025  139.1167  160.5231 C.ar    1  UNL1        0.1472
      6 N         141.3389  139.4321  160.4325 N.ar    1  UNL1       -0.2792
      7 C         140.5205  138.8767  159.3048 C.ar    1  UNL1        0.2829
      8 O         139.0568  139.1920  159.2142 O.2     1  UNL1       -0.2652
      9 C         141.1657  138.0059  158.2678 C.ar    1  UNL1        0.1762
     10 N         140.6183  137.3202  157.0511 N.ar    1  UNL1       -0.1586
     11 C         143.6210  139.6722  161.6509 C.ar    1  UNL1        0.0478
     12 C         143.7746  138.8906  162.9219 C.ar    1  UNL1        0.0058
     13 C         144.5931  139.4461  164.0496 C.ar    1  UNL1        0.0208
     14 C         145.2579  140.7830  163.9062 C.ar    1  UNL1        0.0984
     15 N         145.1043  141.5646  162.6351 N.ar    1  UNL1       -0.2480
     16 C         144.2859  141.0091  161.5075 C.ar    1  UNL1        0.0623
     17 C         144.1322  141.7907  160.2364 C.3     1  UNL1        0.0522
     18 C         141.3532  133.4494  153.9836 C.ar    1  UNL1        0.1401
     19 C         141.4436  134.1110  152.6404 C.ar    1  UNL1        0.0370
     20 C         141.6341  135.5959  152.5470 C.ar    1  UNL1        0.0047
     21 C         141.7341  136.4192  153.7969 C.ar    1  UNL1        0.0194
     22 C         141.6437  135.7577  155.1401 C.ar    1  UNL1        0.0859
     23 C         141.4532  134.2728  155.2335 C.ar    1  UNL1        0.0560
     24 O         141.1628  131.9645  154.0770 O.3     1  UNL1       -0.4754
     25 C         142.1439  131.1294  154.8451 C.3     1  UNL1        0.2054
     26 C         144.4110  131.9449  155.8173 C.3     1  UNL1        0.0040
     27 C         143.6166  131.3650  154.6848 C.3     1  UNL1        0.0473
     28 C         140.6936  140.3029  161.4695 C.3     1  UNL1        0.1119
     29 C         140.1183  139.6894  162.7114 C.3     1  UNL1        0.0388
     30 C         139.5190  138.3153  162.6609 C.3     1  UNL1        0.0048
     31 C         138.9436  137.7017  163.9029 C.3     1  UNL1        0.0174
     32 C         138.9675  138.4624  165.1955 C.3     1  UNL1        0.0722
     33 N         139.5668  139.8367  165.2461 N.3     1  UNL1       -0.2706
     34 C         140.1422  140.4501  164.0041 C.3     1  UNL1        0.0741
     35 C         139.5907  140.5973  166.5387 C.3     1  UNL1        0.1020
     36 C         140.5332  140.1890  167.6318 C.3     1  UNL1        0.1312
     37 C         141.9848  139.8506  167.4636 C.3     1  UNL1        0.0336
     38 C         142.5384  139.4998  168.8128 C.3     1  UNL1        0.0346
     39 C         141.4290  139.6215  169.8150 C.3     1  UNL1        0.1422
     40 O         140.1897  140.0474  169.0851 O.3     1  UNL1       -0.3548
@<TRIPOS>BOND
     1    26    27    1
     2    27    25    1
     3    25    24    1
     4    24    18    1
     5    18    19   ar
     6    19    20   ar
     7    20    21   ar
     8    21    22   ar
     9    22     1    1
    10     1     2   ar
    11     2     3   ar
    12     3     4   ar
    13     4     5   ar
    14     5    11    1
    15    11    12   ar
    16    12    13   ar
    17    13    14   ar
    18    14    15   ar
    19    15    16   ar
    20    16    17    1
    21     5     6   ar
    22     6    28    1
    23    29    28    1
    24    29    30    1
    25    30    31    1
    26    31    32    1
    27    32    33    1
    28    33    35    1
    29    36    35    1
    30    36    37    1
    31    37    38    1
    32    38    39    1
    33    39    40    1
    34    33    34    1
    35     6     7   ar
    36     7     8    2
    37     7     9   ar
    38     9    10   ar
    39    22    23   ar
    40    23    18   ar
    41    10     1   ar
    42     9     3   ar
    43    16    11   ar
    44    34    29    1
    45    40    36    1
@<TRIPOS>MOLECULE
*****
 40 45 0 0 0
SMALL
GASTEIGER

@<TRIPOS>ATOM
      1 N         141.3245  140.2171  166.5382 N.ar    1  UNL1       -0.2264
      2 C         140.8111  139.2858  165.4803 C.ar    1  UNL1        0.1212
      3 C         141.3617  139.7360  164.1596 C.ar    1  UNL1        0.1260
      4 N         141.1960  139.2007  162.7682 N.ar    1  UNL1       -0.2248
      5 C         141.8840  139.8751  161.6184 C.ar    1  UNL1        0.1472
      6 N         142.7376  141.0845  161.8600 N.ar    1  UNL1       -0.2792
      7 C         142.9033  141.6197  163.2514 C.ar    1  UNL1        0.2829
      8 O         143.7570  142.8292  163.4930 O.2     1  UNL1       -0.2652
      9 C         142.2154  140.9455  164.4012 C.ar    1  UNL1        0.1762
     10 N         142.1924  141.2428  165.8713 N.ar    1  UNL1       -0.1586
     11 C         141.7182  139.3398  160.2269 C.ar    1  UNL1        0.0478
     12 C         142.6805  138.3187  159.6965 C.ar    1  UNL1        0.0058
     13 C         142.5148  137.7835  158.3051 C.ar    1  UNL1        0.0208
     14 C         141.3868  138.2694  157.4441 C.ar    1  UNL1        0.0984
     15 N         140.4245  139.2905  157.9744 N.ar    1  UNL1       -0.2480
     16 C         140.5902  139.8257  159.3658 C.ar    1  UNL1        0.0623
     17 C         139.6279  140.8468  159.8962 C.3     1  UNL1        0.0522
     18 C         139.3038  140.1510  169.9532 C.ar    1  UNL1        0.1401
     19 C         140.4201  139.9763  170.9398 C.ar    1  UNL1        0.0370
     20 C         141.8379  139.8819  170.4592 C.ar    1  UNL1        0.0047
     21 C         142.1393  139.9622  168.9920 C.ar    1  UNL1        0.0194
     22 C         141.0230  140.1369  168.0054 C.ar    1  UNL1        0.0859
     23 C         139.6053  140.2313  168.4860 C.ar    1  UNL1        0.0560
     24 O         137.8861  140.2455  170.4338 O.3     1  UNL1       -0.4754
     25 C         137.1163  138.9973  170.7491 C.3     1  UNL1        0.2054
     26 C         135.4703  137.9731  172.4788 C.3     1  UNL1        0.0040
     27 C         135.8433  139.0803  171.5381 C.3     1  UNL1        0.0473
     28 C         143.4256  141.7588  160.7102 C.3     1  UNL1        0.1119
     29 C         142.7792  142.9301  160.0319 C.3     1  UNL1        0.0388
     30 C         143.1329  143.2640  158.6129 C.3     1  UNL1        0.0048
     31 C         142.4865  144.4353  157.9345 C.3     1  UNL1        0.0174
     32 C         141.4863  145.2727  158.6751 C.3     1  UNL1        0.0722
     33 N         141.1326  144.9388  160.0941 N.3     1  UNL1       -0.2706
     34 C         141.7790  143.7675  160.7724 C.3     1  UNL1        0.0741
     35 C         140.1324  145.7762  160.8347 C.3     1  UNL1        0.1020
     36 C         139.4506  145.2279  162.0530 C.3     1  UNL1        0.1312
     37 C         139.9535  145.3237  163.4630 C.3     1  UNL1        0.0336
     38 C         138.9600  144.6425  164.3568 C.3     1  UNL1        0.0346
     39 C         137.8430  144.1256  163.4993 C.3     1  UNL1        0.1422
     40 O         138.1463  144.4874  162.0755 O.3     1  UNL1       -0.3548
@<TRIPOS>BOND
     1    26    27    1
     2    27    25    1
     3    25    24    1
     4    24    18    1
     5    18    19   ar
     6    19    20   ar
     7    20    21   ar
     8    21    22   ar
     9    22     1    1
    10     1     2   ar
    11     2     3   ar
    12     3     4   ar
    13     4     5   ar
    14     5    11    1
    15    11    12   ar
    16    12    13   ar
    17    13    14   ar
    18    14    15   ar
    19    15    16   ar
    20    16    17    1
    21     5     6   ar
    22     6    28    1
    23    29    28    1
    24    29    30    1
    25    30    31    1
    26    31    32    1
    27    32    33    1
    28    33    35    1
    29    36    35    1
    30    36    37    1
    31    37    38    1
    32    38    39    1
    33    39    40    1
    34    33    34    1
    35     6     7   ar
    36     7     8    2
    37     7     9   ar
    38     9    10   ar
    39    22    23   ar
    40    23    18   ar
    41    10     1   ar
    42     9     3   ar
    43    16    11   ar
    44    34    29    1
    45    40    36    1
@<TRIPOS>MOLECULE
*****
 40 45 0 0 0
SMALL
GASTEIGER

@<TRIPOS>ATOM
      1 N         141.3152  145.6232  157.0262 N.ar    1  UNL1       -0.2264
      2 C         142.3336  144.6741  157.5847 C.ar    1  UNL1        0.1212
      3 C         142.0714  144.5249  159.0540 C.ar    1  UNL1        0.1260
      4 N         142.7550  143.7195  160.1188 N.ar    1  UNL1       -0.2248
      5 C         142.2582  143.7710  161.5333 C.ar    1  UNL1        0.1472
      6 N         141.0778  144.6279  161.8828 N.ar    1  UNL1       -0.2792
      7 C         140.3942  145.4334  160.8181 C.ar    1  UNL1        0.2829
      8 O         139.2137  146.2903  161.1677 O.2     1  UNL1       -0.2652
      9 C         140.8910  145.3819  159.4037 C.ar    1  UNL1        0.1762
     10 N         140.4236  146.0607  158.1503 N.ar    1  UNL1       -0.1586
     11 C         142.9419  142.9655  162.5982 C.ar    1  UNL1        0.0478
     12 C         143.9647  143.6104  163.4858 C.ar    1  UNL1        0.0058
     13 C         144.6484  142.8049  164.5506 C.ar    1  UNL1        0.0208
     14 C         144.3091  141.3545  164.7278 C.ar    1  UNL1        0.0984
     15 N         143.2863  140.7096  163.8402 N.ar    1  UNL1       -0.2480
     16 C         142.6026  141.5151  162.7754 C.ar    1  UNL1        0.0623
     17 C         141.5798  140.8702  161.8878 C.3     1  UNL1        0.0522
     18 C         140.3071  147.7172  153.8092 C.ar    1  UNL1        0.1401
     19 C         140.9915  146.9291  152.7320 C.ar    1  UNL1        0.0370
     20 C         141.7839  145.7057  153.0861 C.ar    1  UNL1        0.0047
     21 C         141.8917  145.2705  154.5176 C.ar    1  UNL1        0.0194
     22 C         141.2073  146.0586  155.5948 C.ar    1  UNL1        0.0859
     23 C         140.4149  147.2820  155.2406 C.ar    1  UNL1        0.0560
     24 O         139.5147  148.9406  153.4550 O.3     1  UNL1       -0.4754
     25 C         139.6551  150.1886  154.2753 C.3     1  UNL1        0.2054
     26 C         138.9991  151.3283  156.5160 C.3     1  UNL1        0.0040
     27 C         138.6185  150.5303  155.3043 C.3     1  UNL1        0.0473
     28 C         140.5810  144.6794  163.2973 C.3     1  UNL1        0.1119
     29 C         139.7847  143.5370  163.8546 C.3     1  UNL1        0.0388
     30 C         138.5241  143.0974  163.1708 C.3     1  UNL1        0.0048
     31 C         137.7277  141.9549  163.7281 C.3     1  UNL1        0.0174
     32 C         138.1920  141.2521  164.9693 C.3     1  UNL1        0.0722
     33 N         139.4527  141.6917  165.6531 N.3     1  UNL1       -0.2706
     34 C         140.2490  142.8341  165.0958 C.3     1  UNL1        0.0741
     35 C         139.9169  140.9888  166.8943 C.3     1  UNL1        0.1020
     36 C         140.8010  141.7020  167.8739 C.3     1  UNL1        0.1312
     37 C         142.2928  141.5769  167.9686 C.3     1  UNL1        0.0336
     38 C         142.7624  142.4631  169.0840 C.3     1  UNL1        0.0346
     39 C         141.5609  143.1360  169.6787 C.3     1  UNL1        0.1422
     40 O         140.3487  142.6656  168.9308 O.3     1  UNL1       -0.3548
@<TRIPOS>BOND
     1    26    27    1
     2    27    25    1
     3    25    24    1
     4    24    18    1
     5    18    19   ar
     6    19    20   ar
     7    20    21   ar
     8    21    22   ar
     9    22     1    1
    10     1     2   ar
    11     2     3   ar
    12     3     4   ar
    13     4     5   ar
    14     5    11    1
    15    11    12   ar
    16    12    13   ar
    17    13    14   ar
    18    14    15   ar
    19    15    16   ar
    20    16    17    1
    21     5     6   ar
    22     6    28    1
    23    29    28    1
    24    29    30    1
    25    30    31    1
    26    31    32    1
    27    32    33    1
    28    33    35    1
    29    36    35    1
    30    36    37    1
    31    37    38    1
    32    38    39    1
    33    39    40    1
    34    33    34    1
    35     6     7   ar
    36     7     8    2
    37     7     9   ar
    38     9    10   ar
    39    22    23   ar
    40    23    18   ar
    41    10     1   ar
    42     9     3   ar
    43    16    11   ar
    44    34    29    1
    45    40    36    1
@<TRIPOS>MOLECULE
*****
 40 45 0 0 0
SMALL
GASTEIGER

@<TRIPOS>ATOM
      1 N         141.5573  137.4348  157.2371 N.ar    1  UNL1       -0.2264
      2 C         140.3668  138.1699  157.7777 C.ar    1  UNL1        0.1212
      3 C         140.6684  138.5629  159.1935 C.ar    1  UNL1        0.1260
      4 N         139.8672  139.3055  160.2214 N.ar    1  UNL1       -0.2248
      5 C         140.4429  139.5558  161.5837 C.ar    1  UNL1        0.1472
      6 N         141.8197  139.0636  161.9181 N.ar    1  UNL1       -0.2792
      7 C         142.6210  138.3210  160.8902 C.ar    1  UNL1        0.2829
      8 O         143.9979  137.8288  161.2246 O.2     1  UNL1       -0.2652
      9 C         142.0453  138.0707  159.5279 C.ar    1  UNL1        0.1762
     10 N         142.5947  137.3734  158.3187 N.ar    1  UNL1       -0.1586
     11 C         139.6416  140.2984  162.6117 C.ar    1  UNL1        0.0478
     12 C         139.6154  141.7981  162.6024 C.ar    1  UNL1        0.0058
     13 C         138.8142  142.5406  163.6303 C.ar    1  UNL1        0.0208
     14 C         138.0391  141.7834  164.6676 C.ar    1  UNL1        0.0984
     15 N         138.0653  140.2837  164.6769 N.ar    1  UNL1       -0.2480
     16 C         138.8666  139.5411  163.6490 C.ar    1  UNL1        0.0623
     17 C         138.8928  138.0414  163.6584 C.3     1  UNL1        0.0522
     18 C         141.5663  134.8280  154.2446 C.ar    1  UNL1        0.1401
     19 C         141.9480  135.7151  153.0969 C.ar    1  UNL1        0.0370
     20 C         142.1995  137.1755  153.3293 C.ar    1  UNL1        0.0047
     21 C         142.0692  137.7487  154.7094 C.ar    1  UNL1        0.0194
     22 C         141.6875  136.8615  155.8570 C.ar    1  UNL1        0.0859
     23 C         141.4360  135.4011  155.6247 C.ar    1  UNL1        0.0560
     24 O         141.3148  133.3676  154.0123 O.3     1  UNL1       -0.4754
     25 C         141.3916  132.4018  155.1575 C.3     1  UNL1        0.2054
     26 C         139.7194  130.5033  154.5664 C.3     1  UNL1        0.0040
     27 C         141.1049  130.9468  154.9320 C.3     1  UNL1        0.0473
     28 C         142.3955  139.3139  163.2805 C.3     1  UNL1        0.1119
     29 C         143.4078  140.4028  163.4784 C.3     1  UNL1        0.0388
     30 C         144.8299  140.0545  163.8047 C.3     1  UNL1        0.0048
     31 C         145.8424  141.1435  164.0026 C.3     1  UNL1        0.0174
     32 C         145.4327  142.5807  163.8743 C.3     1  UNL1        0.0722
     33 N         144.0105  142.9290  163.5481 N.3     1  UNL1       -0.2706
     34 C         142.9982  141.8401  163.3501 C.3     1  UNL1        0.0741
     35 C         143.6009  144.3663  163.4198 C.3     1  UNL1        0.1020
     36 C         142.4276  144.7381  162.5625 C.3     1  UNL1        0.1312
     37 C         141.1512  145.3658  163.0390 C.3     1  UNL1        0.0336
     38 C         140.2593  145.5631  161.8492 C.3     1  UNL1        0.0346
     39 C         140.9843  145.0574  160.6374 C.3     1  UNL1        0.1422
     40 O         142.3244  144.5475  161.0782 O.3     1  UNL1       -0.3548
@<TRIPOS>BOND
     1    26    27    1
     2    27    25    1
     3    25    24    1
     4    24    18    1
     5    18    19   ar
     6    19    20   ar
     7    20    21   ar
     8    21    22   ar
     9    22     1    1
    10     1     2   ar
    11     2     3   ar
    12     3     4   ar
    13     4     5   ar
    14     5    11    1
    15    11    12   ar
    16    12    13   ar
    17    13    14   ar
    18    14    15   ar
    19    15    16   ar
    20    16    17    1
    21     5     6   ar
    22     6    28    1
    23    29    28    1
    24    29    30    1
    25    30    31    1
    26    31    32    1
    27    32    33    1
    28    33    35    1
    29    36    35    1
    30    36    37    1
    31    37    38    1
    32    38    39    1
    33    39    40    1
    34    33    34    1
    35     6     7   ar
    36     7     8    2
    37     7     9   ar
    38     9    10   ar
    39    22    23   ar
    40    23    18   ar
    41    10     1   ar
    42     9     3   ar
    43    16    11   ar
    44    34    29    1
    45    40    36    1
