@<TRIPOS>MOLECULE
*****
 36 39 0 0 0
SMALL
GASTEIGER

@<TRIPOS>ATOM
      1 C         142.5262  140.4569  165.3710 C.3     1  UNL1        0.0545
      2 C         141.6084  140.5342  166.5549 C.3     1  UNL1        0.0162
      3 C         140.4103  139.6780  166.2695 C.3     1  UNL1        0.0100
      4 C         140.5876  139.0715  164.9091 C.3     1  UNL1        0.0704
      5 C         141.8953  139.5528  164.3538 C.3     1  UNL1        0.0243
      6 C         140.4872  138.3320  163.6079 C.2     1  UNL1        0.2248
      7 O         140.9484  136.9076  163.5172 O.2     1  UNL1       -0.2749
      8 N         139.9255  139.0170  162.3973 N.am    1  UNL1       -0.2760
      9 C         139.4643  140.4414  162.4881 C.3     1  UNL1        0.1149
     10 C         138.9026  141.1264  161.2776 C.3     1  UNL1        0.1137
     11 N         138.8022  140.3870  159.9764 N.pl3   1  UNL1       -0.2885
     12 C         139.2634  138.9626  159.8856 C.3     1  UNL1        0.1137
     13 C         139.8251  138.2776  161.0961 C.3     1  UNL1        0.1149
     14 C         138.2405  141.0721  158.7659 C.ar    1  UNL1        0.1511
     15 C         138.7220  142.4415  158.3880 C.ar    1  UNL1        0.1331
     16 N         138.1603  143.1265  157.1776 N.ar    1  UNL1       -0.2379
     17 C         137.1171  142.4420  156.3450 C.ar    1  UNL1        0.1220
     18 C         136.6356  141.0726  156.7228 C.ar    1  UNL1        0.1730
     19 N         137.1973  140.3876  157.9333 N.ar    1  UNL1       -0.2235
     20 C         135.5924  140.3882  155.8901 C.3     1  UNL1        0.4364
     21 F         134.5493  139.7038  155.0575 F       1  UNL1       -0.1644
     22 F         134.7135  140.2577  157.0986 F       1  UNL1       -0.1644
     23 F         136.4714  140.5187  154.6817 F       1  UNL1       -0.1644
     24 C         139.2590  138.4355  165.1923 C.3     1  UNL1        0.0082
     25 C         138.1325  139.2626  165.7374 C.3     1  UNL1        0.0005
     26 C         138.9052  137.5216  165.1016 C.3     1  UNL1        0.0005
     27 N         143.8435  141.1601  165.2291 N.3     1  UNL1       -0.2975
     28 H         144.0947  141.5045  166.1558 H       1  UNL1        0.1232
     29 C         144.5052  142.0990  162.8987 C.3     1  UNL1        0.1591
     30 C         144.6392  143.2573  161.9552 C.3     1  UNL1        0.1729
     31 O         144.2455  144.6352  162.3986 O.3     1  UNL1       -0.3511
     32 C         143.7178  144.8547  163.7854 C.3     1  UNL1        0.1437
     33 C         143.5838  143.6963  164.7289 C.3     1  UNL1        0.0503
     34 C         143.9775  142.3185  164.2855 C.3     1  UNL1        0.0865
     35 C         144.0906  140.0097  161.4112 C.3     1  UNL1        0.1742
     36 O         144.8989  140.7211  162.4554 O.3     1  UNL1       -0.3496
@<TRIPOS>BOND
     1    35    36    1
     2    29    36    1
     3    29    30    1
     4    30    31    1
     5    31    32    1
     6    32    33    1
     7    33    34    1
     8    34    27    1
     9     1    27    1
    10     1     2    1
    11     2     3    1
    12     3     4    1
    13     4     6    1
    14     6     7    2
    15     6     8   am
    16     8     9    1
    17     9    10    1
    18    10    11    1
    19    11    14    1
    20    14    15   ar
    21    15    16   ar
    22    16    17   ar
    23    17    18   ar
    24    18    20    1
    25    20    21    1
    26    20    22    1
    27    20    23    1
    28    18    19   ar
    29    11    12    1
    30    12    13    1
    31     4    24    1
    32    24    25    1
    33    24    26    1
    34     4     5    1
    35    34    29    1
    36     5     1    1
    37    13     8    1
    38    19    14   ar
    39    27    28    1
@<TRIPOS>MOLECULE
*****
 36 39 0 0 0
SMALL
GASTEIGER

@<TRIPOS>ATOM
      1 C         142.1223  141.0708  166.5179 C.3     1  UNL1        0.0545
      2 C         142.5864  142.4933  166.4129 C.3     1  UNL1        0.0162
      3 C         143.6572  142.5554  165.3643 C.3     1  UNL1        0.0100
      4 C         143.8549  141.1713  164.8211 C.3     1  UNL1        0.0704
      5 C         142.9063  140.2537  165.5341 C.3     1  UNL1        0.0243
      6 C         144.2690  139.9245  164.0974 C.2     1  UNL1        0.2248
      7 O         145.3759  139.0724  164.6439 O.2     1  UNL1       -0.2749
      8 N         143.5761  139.5296  162.8269 N.am    1  UNL1       -0.2760
      9 C         142.4691  140.3816  162.2803 C.3     1  UNL1        0.1149
     10 C         141.7762  139.9868  161.0099 C.3     1  UNL1        0.1137
     11 N         142.1902  138.7399  160.2860 N.pl3   1  UNL1       -0.2885
     12 C         143.2971  137.8879  160.8326 C.3     1  UNL1        0.1137
     13 C         143.9901  138.2827  162.1030 C.3     1  UNL1        0.1149
     14 C         141.4972  138.3451  159.0156 C.ar    1  UNL1        0.1511
     15 C         140.0790  138.7683  158.7721 C.ar    1  UNL1        0.1331
     16 N         139.3861  138.3735  157.5016 N.ar    1  UNL1       -0.2379
     17 C         140.1115  137.5555  156.4748 C.ar    1  UNL1        0.1220
     18 C         141.5298  137.1322  156.7183 C.ar    1  UNL1        0.1730
     19 N         142.2227  137.5270  157.9887 N.ar    1  UNL1       -0.2235
     20 C         142.2551  136.3141  155.6914 C.3     1  UNL1        0.4364
     21 F         142.9805  135.4960  154.6644 F       1  UNL1       -0.1644
     22 F         140.9652  135.6512  155.3084 F       1  UNL1       -0.1644
     23 F         143.5450  136.9771  156.0743 F       1  UNL1       -0.1644
     24 C         144.8900  141.8282  163.9569 C.3     1  UNL1        0.0082
     25 C         144.5356  143.0461  163.1562 C.3     1  UNL1        0.0005
     26 C         145.8372  141.6429  163.7638 C.3     1  UNL1        0.0005
     27 N         141.0607  140.5557  167.4439 N.3     1  UNL1       -0.2975
     28 H         140.1627  140.7670  167.0089 H       1  UNL1        0.1232
     29 C         141.9111  140.5045  169.8984 C.3     1  UNL1        0.1591
     30 C         141.8378  141.0083  171.3093 C.3     1  UNL1        0.1729
     31 O         140.8409  142.0672  171.6768 O.3     1  UNL1       -0.3511
     32 C         139.9173  142.6222  170.6334 C.3     1  UNL1        0.1437
     33 C         139.9906  142.1184  169.2225 C.3     1  UNL1        0.0503
     34 C         140.9875  141.0595  168.8550 C.3     1  UNL1        0.0865
     35 C         142.9330  138.1466  170.2804 C.3     1  UNL1        0.1742
     36 O         142.9080  139.4456  169.5309 O.3     1  UNL1       -0.3496
@<TRIPOS>BOND
     1    35    36    1
     2    29    36    1
     3    29    30    1
     4    30    31    1
     5    31    32    1
     6    32    33    1
     7    33    34    1
     8    34    27    1
     9     1    27    1
    10     1     2    1
    11     2     3    1
    12     3     4    1
    13     4     6    1
    14     6     7    2
    15     6     8   am
    16     8     9    1
    17     9    10    1
    18    10    11    1
    19    11    14    1
    20    14    15   ar
    21    15    16   ar
    22    16    17   ar
    23    17    18   ar
    24    18    20    1
    25    20    21    1
    26    20    22    1
    27    20    23    1
    28    18    19   ar
    29    11    12    1
    30    12    13    1
    31     4    24    1
    32    24    25    1
    33    24    26    1
    34     4     5    1
    35    34    29    1
    36     5     1    1
    37    13     8    1
    38    19    14   ar
    39    27    28    1
@<TRIPOS>MOLECULE
*****
 36 39 0 0 0
SMALL
GASTEIGER

@<TRIPOS>ATOM
      1 C         140.0624  141.9358  164.8652 C.3     1  UNL1        0.0545
      2 C         141.0886  141.9734  165.9586 C.3     1  UNL1        0.0162
      3 C         142.2096  142.8644  165.5119 C.3     1  UNL1        0.0100
      4 C         141.8762  143.3775  164.1423 C.3     1  UNL1        0.0704
      5 C         140.5492  142.8036  163.7427 C.3     1  UNL1        0.0243
      6 C         141.8176  144.0394  162.7976 C.2     1  UNL1        0.2248
      7 O         141.1383  145.3680  162.6445 O.2     1  UNL1       -0.2749
      8 N         142.4384  143.3728  161.6058 N.am    1  UNL1       -0.2760
      9 C         143.1178  142.0443  161.7589 C.3     1  UNL1        0.1149
     10 C         143.7386  141.3776  160.5672 C.3     1  UNL1        0.1137
     11 N         143.6800  142.0395  159.2224 N.pl3   1  UNL1       -0.2885
     12 C         143.0007  143.3680  159.0693 C.3     1  UNL1        0.1137
     13 C         142.3799  144.0347  160.2610 C.3     1  UNL1        0.1149
     14 C         144.3008  141.3728  158.0307 C.ar    1  UNL1        0.1511
     15 C         143.7399  140.0797  157.5178 C.ar    1  UNL1        0.1331
     16 N         144.3607  139.4130  156.3261 N.ar    1  UNL1       -0.2379
     17 C         145.5425  140.0395  155.6473 C.ar    1  UNL1        0.1220
     18 C         146.1035  141.3327  156.1602 C.ar    1  UNL1        0.1730
     19 N         145.4827  141.9994  157.3519 N.ar    1  UNL1       -0.2235
     20 C         147.2853  141.9592  155.4813 C.3     1  UNL1        0.4364
     21 F         148.4671  142.5856  154.8024 F       1  UNL1       -0.1644
     22 F         146.7894  141.4593  154.1568 F       1  UNL1       -0.1644
     23 F         147.7811  142.4590  156.8058 F       1  UNL1       -0.1644
     24 C         143.1909  144.0898  164.2609 C.3     1  UNL1        0.0082
     25 C         144.3811  143.3775  164.8319 C.3     1  UNL1        0.0005
     26 C         143.4999  144.9968  164.0360 C.3     1  UNL1        0.0005
     27 N         138.7755  141.1657  164.8899 N.3     1  UNL1       -0.2975
     28 H         138.7096  140.7319  165.8108 H       1  UNL1        0.1232
     29 C         137.8281  140.3991  162.5954 C.3     1  UNL1        0.1591
     30 C         137.5832  139.3154  161.5877 C.3     1  UNL1        0.1729
     31 O         138.0406  137.9144  161.8669 O.3     1  UNL1       -0.3511
     32 C         138.7430  137.5971  163.1537 C.3     1  UNL1        0.1437
     33 C         138.9880  138.6809  164.1613 C.3     1  UNL1        0.0503
     34 C         138.5305  140.0819  163.8822 C.3     1  UNL1        0.0865
     35 C         138.0765  142.6279  161.2835 C.3     1  UNL1        0.1742
     36 O         137.3706  141.8001  162.3162 O.3     1  UNL1       -0.3496
@<TRIPOS>BOND
     1    35    36    1
     2    29    36    1
     3    29    30    1
     4    30    31    1
     5    31    32    1
     6    32    33    1
     7    33    34    1
     8    34    27    1
     9     1    27    1
    10     1     2    1
    11     2     3    1
    12     3     4    1
    13     4     6    1
    14     6     7    2
    15     6     8   am
    16     8     9    1
    17     9    10    1
    18    10    11    1
    19    11    14    1
    20    14    15   ar
    21    15    16   ar
    22    16    17   ar
    23    17    18   ar
    24    18    20    1
    25    20    21    1
    26    20    22    1
    27    20    23    1
    28    18    19   ar
    29    11    12    1
    30    12    13    1
    31     4    24    1
    32    24    25    1
    33    24    26    1
    34     4     5    1
    35    34    29    1
    36     5     1    1
    37    13     8    1
    38    19    14   ar
    39    27    28    1
@<TRIPOS>MOLECULE
*****
 36 39 0 0 0
SMALL
GASTEIGER

@<TRIPOS>ATOM
      1 C         141.9528  140.5489  166.7520 C.3     1  UNL1        0.0545
      2 C         142.6761  139.2497  166.5548 C.3     1  UNL1        0.0162
      3 C         141.8749  138.4131  165.6017 C.3     1  UNL1        0.0100
      4 C         140.6565  139.1953  165.2099 C.3     1  UNL1        0.0704
      5 C         140.7047  140.5153  165.9208 C.3     1  UNL1        0.0243
      6 C         139.3719  139.7248  164.6447 C.2     1  UNL1        0.2248
      7 O         138.0830  139.5083  165.3809 O.2     1  UNL1       -0.2749
      8 N         139.3761  140.4708  163.3434 N.am    1  UNL1       -0.2760
      9 C         140.6649  140.6873  162.6072 C.3     1  UNL1        0.1149
     10 C         140.6692  141.4332  161.3058 C.3     1  UNL1        0.1137
     11 N         139.3846  141.9627  160.7406 N.pl3   1  UNL1       -0.2885
     12 C         138.0958  141.7462  161.4768 C.3     1  UNL1        0.1137
     13 C         138.0915  141.0003  162.7782 C.3     1  UNL1        0.1149
     14 C         139.3889  142.7087  159.4393 C.ar    1  UNL1        0.1511
     15 C         138.3261  142.4380  158.4161 C.ar    1  UNL1        0.1331
     16 N         138.3304  143.1840  157.1147 N.ar    1  UNL1       -0.2379
     17 C         139.3976  144.2007  156.8367 C.ar    1  UNL1        0.1220
     18 C         140.4605  144.4714  157.8599 C.ar    1  UNL1        0.1730
     19 N         140.4562  143.7254  159.1612 N.ar    1  UNL1       -0.2235
     20 C         141.5277  145.4881  157.5817 C.3     1  UNL1        0.4364
     21 F         142.5949  146.5048  157.3035 F       1  UNL1       -0.1644
     22 F         140.5520  146.2911  156.7734 F       1  UNL1       -0.1644
     23 F         142.5033  144.6852  158.3900 F       1  UNL1       -0.1644
     24 C         140.3398  137.9861  164.3809 C.3     1  UNL1        0.0082
     25 C         141.3878  137.3955  163.4848 C.3     1  UNL1        0.0005
     26 C         139.5380  137.4272  164.2654 C.3     1  UNL1        0.0005
     27 N         142.3993  141.6826  167.6268 N.3     1  UNL1       -0.2975
     28 H         143.3895  141.5327  167.8206 H       1  UNL1        0.1232
     29 C         142.0962  141.0774  170.1351 C.3     1  UNL1        0.1591
     30 C         141.4271  141.3135  171.4567 C.3     1  UNL1        0.1729
     31 O         140.3921  142.3907  171.5915 O.3     1  UNL1       -0.3511
     32 C         140.0261  143.2320  170.4048 C.3     1  UNL1        0.1437
     33 C         140.6952  142.9959  169.0833 C.3     1  UNL1        0.0503
     34 C         141.7302  141.9187  168.9484 C.3     1  UNL1        0.0865
     35 C         142.7390  138.5602  170.1507 C.3     1  UNL1        0.1742
     36 O         143.1312  140.0001  170.0003 O.3     1  UNL1       -0.3496
@<TRIPOS>BOND
     1    35    36    1
     2    29    36    1
     3    29    30    1
     4    30    31    1
     5    31    32    1
     6    32    33    1
     7    33    34    1
     8    34    27    1
     9     1    27    1
    10     1     2    1
    11     2     3    1
    12     3     4    1
    13     4     6    1
    14     6     7    2
    15     6     8   am
    16     8     9    1
    17     9    10    1
    18    10    11    1
    19    11    14    1
    20    14    15   ar
    21    15    16   ar
    22    16    17   ar
    23    17    18   ar
    24    18    20    1
    25    20    21    1
    26    20    22    1
    27    20    23    1
    28    18    19   ar
    29    11    12    1
    30    12    13    1
    31     4    24    1
    32    24    25    1
    33    24    26    1
    34     4     5    1
    35    34    29    1
    36     5     1    1
    37    13     8    1
    38    19    14   ar
    39    27    28    1
@<TRIPOS>MOLECULE
*****
 36 39 0 0 0
SMALL
GASTEIGER

@<TRIPOS>ATOM
      1 C         141.7937  139.8318  160.8074 C.3     1  UNL1        0.0545
      2 C         141.0591  140.7208  159.8482 C.3     1  UNL1        0.0162
      3 C         139.6030  140.6867  160.2069 C.3     1  UNL1        0.0100
      4 C         139.4377  139.7766  161.3877 C.3     1  UNL1        0.0704
      5 C         140.7916  139.2483  161.7588 C.3     1  UNL1        0.0243
      6 C         138.9689  138.9405  162.5414 C.2     1  UNL1        0.2248
      7 O         138.1942  137.6811  162.2890 O.2     1  UNL1       -0.2749
      8 N         139.2749  139.3637  163.9476 N.am    1  UNL1       -0.2760
      9 C         140.0496  140.6230  164.2000 C.3     1  UNL1        0.1149
     10 C         140.3556  141.0463  165.6062 C.3     1  UNL1        0.1137
     11 N         139.8869  140.2102  166.7599 N.pl3   1  UNL1       -0.2885
     12 C         139.1121  138.9508  166.5075 C.3     1  UNL1        0.1137
     13 C         138.8061  138.5275  165.1014 C.3     1  UNL1        0.1149
     14 C         140.1929  140.6334  168.1660 C.ar    1  UNL1        0.1511
     15 C         139.2241  140.3266  169.2693 C.ar    1  UNL1        0.1331
     16 N         139.5301  140.7499  170.6755 N.ar    1  UNL1       -0.2379
     17 C         140.8050  141.4800  170.9782 C.ar    1  UNL1        0.1220
     18 C         141.7738  141.7869  169.8750 C.ar    1  UNL1        0.1730
     19 N         141.4678  141.3636  168.4688 N.ar    1  UNL1       -0.2235
     20 C         143.0486  142.5170  170.1778 C.3     1  UNL1        0.4364
     21 F         144.3234  143.2471  170.4807 F       1  UNL1       -0.1644
     22 F         142.2809  143.7976  170.3215 F       1  UNL1       -0.1644
     23 F         143.8162  141.2363  170.0341 F       1  UNL1       -0.1644
     24 C         137.9858  140.1302  161.2578 C.3     1  UNL1        0.0082
     25 C         137.3881  141.1833  162.1431 C.3     1  UNL1        0.0005
     26 C         137.2540  139.8138  160.6807 C.3     1  UNL1        0.0005
     27 N         143.2710  139.5719  160.8139 N.3     1  UNL1       -0.2975
     28 H         143.3927  138.5620  160.7390 H       1  UNL1        0.1232
     29 C         144.7720  141.3679  161.9415 C.3     1  UNL1        0.1591
     30 C         145.6079  141.8198  163.1022 C.3     1  UNL1        0.1729
     31 O         145.7785  140.9277  164.2959 O.3     1  UNL1       -0.3511
     32 C         145.1134  139.5837  164.3290 C.3     1  UNL1        0.1437
     33 C         144.2776  139.1318  163.1683 C.3     1  UNL1        0.0503
     34 C         144.1069  140.0239  161.9746 C.3     1  UNL1        0.0865
     35 C         143.4643  143.2371  160.6982 C.3     1  UNL1        0.1742
     36 O         144.6014  142.2601  160.7478 O.3     1  UNL1       -0.3496
@<TRIPOS>BOND
     1    35    36    1
     2    29    36    1
     3    29    30    1
     4    30    31    1
     5    31    32    1
     6    32    33    1
     7    33    34    1
     8    34    27    1
     9     1    27    1
    10     1     2    1
    11     2     3    1
    12     3     4    1
    13     4     6    1
    14     6     7    2
    15     6     8   am
    16     8     9    1
    17     9    10    1
    18    10    11    1
    19    11    14    1
    20    14    15   ar
    21    15    16   ar
    22    16    17   ar
    23    17    18   ar
    24    18    20    1
    25    20    21    1
    26    20    22    1
    27    20    23    1
    28    18    19   ar
    29    11    12    1
    30    12    13    1
    31     4    24    1
    32    24    25    1
    33    24    26    1
    34     4     5    1
    35    34    29    1
    36     5     1    1
    37    13     8    1
    38    19    14   ar
    39    27    28    1
@<TRIPOS>MOLECULE
*****
 36 39 0 0 0
SMALL
GASTEIGER

@<TRIPOS>ATOM
      1 C         141.0899  141.7366  164.7265 C.3     1  UNL1        0.0545
      2 C         141.4052  140.8137  165.8661 C.3     1  UNL1        0.0162
      3 C         140.8663  139.4558  165.5257 C.3     1  UNL1        0.0100
      4 C         140.2180  139.5395  164.1756 C.3     1  UNL1        0.0704
      5 C         140.3562  140.9491  163.6817 C.3     1  UNL1        0.0243
      6 C         139.5099  139.3190  162.8718 C.2     1  UNL1        0.2248
      7 O         138.0143  139.4130  162.8053 O.2     1  UNL1       -0.2749
      8 N         140.2973  139.0044  161.6345 N.am    1  UNL1       -0.2760
      9 C         141.7929  138.9104  161.7010 C.3     1  UNL1        0.1149
     10 C         142.5804  138.5958  160.4637 C.3     1  UNL1        0.1137
     11 N         141.8724  138.3753  159.1599 N.pl3   1  UNL1       -0.2885
     12 C         140.3768  138.4693  159.0933 C.3     1  UNL1        0.1137
     13 C         139.5893  138.7839  160.3306 C.3     1  UNL1        0.1149
     14 C         142.6599  138.0607  157.9226 C.ar    1  UNL1        0.1511
     15 C         143.3669  139.1583  157.1843 C.ar    1  UNL1        0.1331
     16 N         144.1544  138.8438  155.9470 N.ar    1  UNL1       -0.2379
     17 C         144.2348  137.4315  155.4481 C.ar    1  UNL1        0.1220
     18 C         143.5278  136.3338  156.1864 C.ar    1  UNL1        0.1730
     19 N         142.7403  136.6483  157.4237 N.ar    1  UNL1       -0.2235
     20 C         143.6082  134.9215  155.6874 C.3     1  UNL1        0.4364
     21 F         143.6887  133.5092  155.1884 F       1  UNL1       -0.1644
     22 F         143.1515  135.3743  154.3323 F       1  UNL1       -0.1644
     23 F         144.0650  134.4687  157.0425 F       1  UNL1       -0.1644
     24 C         139.9318  138.0839  164.3970 C.3     1  UNL1        0.0082
     25 C         141.0590  137.0949  164.4332 C.3     1  UNL1        0.0005
     26 C         139.1090  137.5627  164.5385 C.3     1  UNL1        0.0005
     27 N         141.4459  143.1915  164.6458 N.3     1  UNL1       -0.2975
     28 H         140.9592  143.6567  165.4121 H       1  UNL1        0.1232
     29 C         139.9470  144.8807  163.3612 C.3     1  UNL1        0.1591
     30 C         139.6400  145.6600  162.1168 C.3     1  UNL1        0.1729
     31 O         140.5249  145.5294  160.9127 O.3     1  UNL1       -0.3511
     32 C         141.7167  144.6195  160.9529 C.3     1  UNL1        0.1437
     33 C         142.0237  143.8403  162.1972 C.3     1  UNL1        0.0503
     34 C         141.1388  143.9709  163.4014 C.3     1  UNL1        0.0865
     35 C         137.9331  144.0462  164.7745 C.3     1  UNL1        0.1742
     36 O         139.0621  145.0113  164.5653 O.3     1  UNL1       -0.3496
@<TRIPOS>BOND
     1    35    36    1
     2    29    36    1
     3    29    30    1
     4    30    31    1
     5    31    32    1
     6    32    33    1
     7    33    34    1
     8    34    27    1
     9     1    27    1
    10     1     2    1
    11     2     3    1
    12     3     4    1
    13     4     6    1
    14     6     7    2
    15     6     8   am
    16     8     9    1
    17     9    10    1
    18    10    11    1
    19    11    14    1
    20    14    15   ar
    21    15    16   ar
    22    16    17   ar
    23    17    18   ar
    24    18    20    1
    25    20    21    1
    26    20    22    1
    27    20    23    1
    28    18    19   ar
    29    11    12    1
    30    12    13    1
    31     4    24    1
    32    24    25    1
    33    24    26    1
    34     4     5    1
    35    34    29    1
    36     5     1    1
    37    13     8    1
    38    19    14   ar
    39    27    28    1
@<TRIPOS>MOLECULE
*****
 36 39 0 0 0
SMALL
GASTEIGER

@<TRIPOS>ATOM
      1 C         141.8846  140.5926  166.7066 C.3     1  UNL1        0.0545
      2 C         142.5985  139.2896  166.5006 C.3     1  UNL1        0.0162
      3 C         141.7775  138.4544  165.5633 C.3     1  UNL1        0.0100
      4 C         140.5563  139.2413  165.1900 C.3     1  UNL1        0.0704
      5 C         140.6225  140.5628  165.8966 C.3     1  UNL1        0.0243
      6 C         139.2648  139.7753  164.6453 C.2     1  UNL1        0.2248
      7 O         137.9955  139.6103  165.4274 O.2     1  UNL1       -0.2749
      8 N         139.2425  140.4745  163.3183 N.am    1  UNL1       -0.2760
      9 C         140.5117  140.6395  162.5362 C.3     1  UNL1        0.1149
     10 C         140.4895  141.3386  161.2093 C.3     1  UNL1        0.1137
     11 N         139.1981  141.8727  160.6644 N.pl3   1  UNL1       -0.2885
     12 C         137.9288  141.7077  161.4465 C.3     1  UNL1        0.1137
     13 C         137.9510  141.0085  162.7735 C.3     1  UNL1        0.1149
     14 C         139.1759  142.5718  159.3375 C.ar    1  UNL1        0.1511
     15 C         140.2830  143.5136  158.9673 C.ar    1  UNL1        0.1331
     16 N         140.2608  144.2127  157.6403 N.ar    1  UNL1       -0.2379
     17 C         139.1314  143.9700  156.6836 C.ar    1  UNL1        0.1220
     18 C         138.0241  143.0282  157.0538 C.ar    1  UNL1        0.1730
     19 N         138.0463  142.3290  158.3807 N.ar    1  UNL1       -0.2235
     20 C         136.8947  142.7855  156.0970 C.3     1  UNL1        0.4364
     21 F         135.7653  142.5428  155.1402 F       1  UNL1       -0.1644
     22 F         136.9791  144.2103  155.6359 F       1  UNL1       -0.1644
     23 F         136.8102  141.3606  156.5581 F       1  UNL1       -0.1644
     24 C         140.2201  138.0315  164.3696 C.3     1  UNL1        0.0082
     25 C         141.2871  137.3512  163.5642 C.3     1  UNL1        0.0005
     26 C         139.3937  137.5211  164.2108 C.3     1  UNL1        0.0005
     27 N         142.3511  141.7265  167.5708 N.3     1  UNL1       -0.2975
     28 H         143.3422  141.5692  167.7533 H       1  UNL1        0.1232
     29 C         142.0881  141.1479  170.0900 C.3     1  UNL1        0.1591
     30 C         141.4372  141.3952  171.4186 C.3     1  UNL1        0.1729
     31 O         140.3982  142.4683  171.5566 O.3     1  UNL1       -0.3511
     32 C         140.0102  143.2941  170.3660 C.3     1  UNL1        0.1437
     33 C         140.6612  143.0468  169.0375 C.3     1  UNL1        0.0503
     34 C         141.7001  141.9737  168.8995 C.3     1  UNL1        0.0865
     35 C         142.7366  138.6321  170.0786 C.3     1  UNL1        0.1742
     36 O         143.1271  140.0748  169.9520 O.3     1  UNL1       -0.3496
@<TRIPOS>BOND
     1    35    36    1
     2    29    36    1
     3    29    30    1
     4    30    31    1
     5    31    32    1
     6    32    33    1
     7    33    34    1
     8    34    27    1
     9     1    27    1
    10     1     2    1
    11     2     3    1
    12     3     4    1
    13     4     6    1
    14     6     7    2
    15     6     8   am
    16     8     9    1
    17     9    10    1
    18    10    11    1
    19    11    14    1
    20    14    15   ar
    21    15    16   ar
    22    16    17   ar
    23    17    18   ar
    24    18    20    1
    25    20    21    1
    26    20    22    1
    27    20    23    1
    28    18    19   ar
    29    11    12    1
    30    12    13    1
    31     4    24    1
    32    24    25    1
    33    24    26    1
    34     4     5    1
    35    34    29    1
    36     5     1    1
    37    13     8    1
    38    19    14   ar
    39    27    28    1
@<TRIPOS>MOLECULE
*****
 36 39 0 0 0
SMALL
GASTEIGER

@<TRIPOS>ATOM
      1 C         142.7706  140.0287  164.9618 C.3     1  UNL1        0.0545
      2 C         142.8034  138.5356  165.1014 C.3     1  UNL1        0.0162
      3 C         141.4105  138.0197  164.8924 C.3     1  UNL1        0.0100
      4 C         140.5168  139.1940  164.6236 C.3     1  UNL1        0.0704
      5 C         141.3574  140.4356  164.6665 C.3     1  UNL1        0.0243
      6 C         139.3985  140.1506  164.3333 C.2     1  UNL1        0.2248
      7 O         138.3809  140.4583  165.3914 O.2     1  UNL1       -0.2749
      8 N         139.2978  140.7996  162.9846 N.am    1  UNL1       -0.2760
      9 C         140.3154  140.4918  161.9265 C.3     1  UNL1        0.1149
     10 C         140.2148  141.1407  160.5778 C.3     1  UNL1        0.1137
     11 N         139.0966  142.0973  160.2873 N.pl3   1  UNL1       -0.2885
     12 C         138.0790  142.4051  161.3455 C.3     1  UNL1        0.1137
     13 C         138.1796  141.7562  162.6941 C.3     1  UNL1        0.1149
     14 C         138.9960  142.7462  158.9387 C.ar    1  UNL1        0.1511
     15 C         140.0136  143.7650  158.5187 C.ar    1  UNL1        0.1331
     16 N         139.9130  144.4139  157.1701 N.ar    1  UNL1       -0.2379
     17 C         138.7946  144.0439  156.2414 C.ar    1  UNL1        0.1220
     18 C         137.7770  143.0251  156.6614 C.ar    1  UNL1        0.1730
     19 N         137.8776  142.3762  158.0100 N.ar    1  UNL1       -0.2235
     20 C         136.6587  142.6552  155.7326 C.3     1  UNL1        0.4364
     21 F         135.5404  142.2853  154.8039 F       1  UNL1       -0.1644
     22 F         136.6121  144.0665  155.2266 F       1  UNL1       -0.1644
     23 F         136.7052  141.2439  156.2387 F       1  UNL1       -0.1644
     24 C         139.4425  138.1524  164.5200 C.3     1  UNL1        0.0082
     25 C         139.0502  137.6104  163.1775 C.3     1  UNL1        0.0005
     26 C         138.8738  137.6891  165.1763 C.3     1  UNL1        0.0005
     27 N         143.9448  140.9526  165.0942 N.3     1  UNL1       -0.2975
     28 H         143.9613  141.2709  166.0631 H       1  UNL1        0.1232
     29 C         144.5756  142.0770  162.8385 C.3     1  UNL1        0.1591
     30 C         144.6662  143.3026  161.9786 C.3     1  UNL1        0.1729
     31 O         144.2166  144.6296  162.5143 O.3     1  UNL1       -0.3511
     32 C         143.6764  144.7309  163.9100 C.3     1  UNL1        0.1437
     33 C         143.5858  143.5053  164.7699 C.3     1  UNL1        0.0503
     34 C         144.0354  142.1783  164.2342 C.3     1  UNL1        0.0865
     35 C         144.0983  139.9305  161.4548 C.3     1  UNL1        0.1742
     36 O         145.0252  140.7500  162.3028 O.3     1  UNL1       -0.3496
@<TRIPOS>BOND
     1    35    36    1
     2    29    36    1
     3    29    30    1
     4    30    31    1
     5    31    32    1
     6    32    33    1
     7    33    34    1
     8    34    27    1
     9     1    27    1
    10     1     2    1
    11     2     3    1
    12     3     4    1
    13     4     6    1
    14     6     7    2
    15     6     8   am
    16     8     9    1
    17     9    10    1
    18    10    11    1
    19    11    14    1
    20    14    15   ar
    21    15    16   ar
    22    16    17   ar
    23    17    18   ar
    24    18    20    1
    25    20    21    1
    26    20    22    1
    27    20    23    1
    28    18    19   ar
    29    11    12    1
    30    12    13    1
    31     4    24    1
    32    24    25    1
    33    24    26    1
    34     4     5    1
    35    34    29    1
    36     5     1    1
    37    13     8    1
    38    19    14   ar
    39    27    28    1
@<TRIPOS>MOLECULE
*****
 36 39 0 0 0
SMALL
GASTEIGER

@<TRIPOS>ATOM
      1 C         138.1811  142.4179  163.7025 C.3     1  UNL1        0.0545
      2 C         137.6910  143.8176  163.4776 C.3     1  UNL1        0.0162
      3 C         138.8864  144.7000  163.2718 C.3     1  UNL1        0.0100
      4 C         140.1155  143.8456  163.3695 C.3     1  UNL1        0.0704
      5 C         139.6796  142.4352  163.6357 C.3     1  UNL1        0.0243
      6 C         141.4959  143.2604  163.4135 C.2     1  UNL1        0.2248
      7 O         142.2426  143.1969  164.7129 O.2     1  UNL1       -0.2749
      8 N         142.1297  142.7387  162.1580 N.am    1  UNL1       -0.2760
      9 C         141.3830  142.8023  160.8587 C.3     1  UNL1        0.1149
     10 C         142.0168  142.2806  159.6032 C.3     1  UNL1        0.1137
     11 N         143.3972  141.6954  159.6471 N.pl3   1  UNL1       -0.2885
     12 C         144.1439  141.6319  160.9464 C.3     1  UNL1        0.1137
     13 C         143.5102  142.1536  162.2019 C.3     1  UNL1        0.1149
     14 C         144.0310  141.1737  158.3916 C.ar    1  UNL1        0.1511
     15 C         143.5290  139.9046  157.7694 C.ar    1  UNL1        0.1331
     16 N         144.1627  139.3829  156.5139 N.ar    1  UNL1       -0.2379
     17 C         145.2985  140.1305  155.8807 C.ar    1  UNL1        0.1220
     18 C         145.8006  141.3997  156.5028 C.ar    1  UNL1        0.1730
     19 N         145.1668  141.9214  157.7583 N.ar    1  UNL1       -0.2235
     20 C         146.9364  142.1472  155.8694 C.3     1  UNL1        0.4364
     21 F         148.0722  142.8948  155.2361 F       1  UNL1       -0.1644
     22 F         147.0842  142.9750  157.1116 F       1  UNL1       -0.1644
     23 F         146.7885  141.3195  154.6273 F       1  UNL1       -0.1644
     24 C         140.8399  145.1336  163.1125 C.3     1  UNL1        0.0082
     25 C         140.3373  146.0805  162.0633 C.3     1  UNL1        0.0005
     26 C         141.6415  145.5557  163.4971 C.3     1  UNL1        0.0005
     27 N         137.3235  141.2126  163.9507 N.3     1  UNL1       -0.2975
     28 H         136.6899  141.4538  164.7127 H       1  UNL1        0.1232
     29 C         138.4705  138.9937  163.2356 C.3     1  UNL1        0.1591
     30 C         139.1048  137.6837  163.5982 C.3     1  UNL1        0.1729
     31 O         139.2265  137.2825  165.0384 O.3     1  UNL1       -0.3511
     32 C         138.7139  138.1913  166.1161 C.3     1  UNL1        0.1437
     33 C         138.0795  139.5013  165.7535 C.3     1  UNL1        0.0503
     34 C         137.9579  139.9025  164.3132 C.3     1  UNL1        0.0865
     35 C         138.9821  138.5544  160.7266 C.3     1  UNL1        0.1742
     36 O         138.3488  139.3949  161.7954 O.3     1  UNL1       -0.3496
@<TRIPOS>BOND
     1    35    36    1
     2    29    36    1
     3    29    30    1
     4    30    31    1
     5    31    32    1
     6    32    33    1
     7    33    34    1
     8    34    27    1
     9     1    27    1
    10     1     2    1
    11     2     3    1
    12     3     4    1
    13     4     6    1
    14     6     7    2
    15     6     8   am
    16     8     9    1
    17     9    10    1
    18    10    11    1
    19    11    14    1
    20    14    15   ar
    21    15    16   ar
    22    16    17   ar
    23    17    18   ar
    24    18    20    1
    25    20    21    1
    26    20    22    1
    27    20    23    1
    28    18    19   ar
    29    11    12    1
    30    12    13    1
    31     4    24    1
    32    24    25    1
    33    24    26    1
    34     4     5    1
    35    34    29    1
    36     5     1    1
    37    13     8    1
    38    19    14   ar
    39    27    28    1
