@<TRIPOS>MOLECULE
*****
 34 37 0 0 0
SMALL
GASTEIGER

@<TRIPOS>ATOM
      1 C         138.3874  139.2685  162.3504 C.ar    1  UNL1        0.0859
      2 C         138.8882  138.0722  163.1040 C.ar    1  UNL1        0.1060
      3 N         138.9742  138.1109  164.6011 N.ar    1  UNL1       -0.2288
      4 C         138.5594  139.3459  165.3445 C.ar    1  UNL1        0.1354
      5 C         138.0585  140.5421  164.5908 C.ar    1  UNL1        0.0492
      6 C         137.9726  140.5034  163.0938 C.ar    1  UNL1        0.0571
      7 C         139.4459  138.9243  158.5411 C.3     1  UNL1        0.1109
      8 N         139.5319  138.9630  160.0381 N.am    1  UNL1       -0.2991
      9 C         138.3014  139.2298  160.8534 C.2     1  UNL1        0.2486
     10 O         136.9849  139.4579  160.1716 O.2     1  UNL1       -0.2700
     11 H         140.3959  138.8133  160.4855 H       1  UNL1        0.1498
     12 N         138.6454  139.3846  166.8415 N.am    1  UNL1       -0.2693
     13 C         139.8007  140.0699  167.5089 C.2     1  UNL1        0.2267
     14 O         140.8701  140.7167  166.6793 O.2     1  UNL1       -0.2748
     15 H         137.9435  138.9601  167.3860 H       1  UNL1        0.1563
     16 C         139.8867  140.1086  169.0059 C.3     1  UNL1        0.0769
     17 C         139.2410  140.3484  170.3384 C.3     1  UNL1        0.0096
     18 C         140.6813  139.9358  170.2663 C.3     1  UNL1        0.0096
     19 N         137.4717  141.6998  162.3402 N.pl3   1  UNL1       -0.3099
     20 H         136.5801  141.6810  161.9230 H       1  UNL1        0.1523
     21 C         138.3292  142.9248  162.2221 C.ar    1  UNL1        0.0829
     22 C         138.3968  143.9051  163.3554 C.ar    1  UNL1        0.0177
     23 C         139.2543  145.1302  163.2373 C.ar    1  UNL1        0.0016
     24 C         140.0443  145.3749  161.9858 C.ar    1  UNL1        0.0062
     25 C         139.9767  144.3945  160.8525 C.ar    1  UNL1        0.0727
     26 C         139.1192  143.1695  160.9706 C.ar    1  UNL1        0.1549
     27 C         140.7667  144.6392  159.6011 C.ar    1  UNL1        0.1862
     28 N         142.1896  144.2290  159.3623 N.ar    1  UNL1       -0.2033
     29 C         142.5748  144.6733  157.9824 C.ar    1  UNL1        0.1972
     30 N         141.3898  145.3582  157.3683 N.ar    1  UNL1       -0.2281
     31 C         141.3324  145.9587  155.9950 C.3     1  UNL1        0.1556
     32 N         140.2724  145.3371  158.3688 N.ar    1  UNL1       -0.1483
     33 O         139.0516  142.1892  159.8373 O.3     1  UNL1       -0.4701
     34 C         138.1105  142.4282  158.6941 C.3     1  UNL1        0.2525
@<TRIPOS>BOND
     1     7     8    1
     2     8     9   am
     3     9    10    2
     4     9     1    1
     5     1     2   ar
     6     2     3   ar
     7     3     4   ar
     8     4    12    1
     9    12    13   am
    10    13    14    2
    11    13    16    1
    12    16    17    1
    13    17    18    1
    14     4     5   ar
    15     5     6   ar
    16     6    19    1
    17    19    21    1
    18    21    22   ar
    19    22    23   ar
    20    23    24   ar
    21    24    25   ar
    22    25    27    1
    23    27    28   ar
    24    28    29   ar
    25    29    30   ar
    26    30    31    1
    27    30    32   ar
    28    25    26   ar
    29    26    33    1
    30    33    34    1
    31     6     1   ar
    32    26    21   ar
    33    18    16    1
    34    32    27   ar
    35     8    11    1
    36    12    15    1
    37    19    20    1
@<TRIPOS>MOLECULE
*****
 34 37 0 0 0
SMALL
GASTEIGER

@<TRIPOS>ATOM
      1 C         139.2450  139.0920  161.4307 C.ar    1  UNL1        0.0859
      2 C         139.8098  138.8270  160.0666 C.ar    1  UNL1        0.1060
      3 N         139.5119  139.7667  158.9360 N.ar    1  UNL1       -0.2288
      4 C         138.6492  140.9713  159.1694 C.ar    1  UNL1        0.1354
      5 C         138.0844  141.2363  160.5335 C.ar    1  UNL1        0.0492
      6 C         138.3823  140.2966  161.6641 C.ar    1  UNL1        0.0571
      7 C         141.2488  137.0541  164.1841 C.3     1  UNL1        0.1109
      8 N         140.9509  137.9937  163.0535 N.am    1  UNL1       -0.2991
      9 C         139.5429  138.1523  162.5613 C.2     1  UNL1        0.2486
     10 O         138.4328  137.3713  163.1997 O.2     1  UNL1       -0.2700
     11 H         141.6795  138.5064  162.6345 H       1  UNL1        0.1498
     12 N         138.3513  141.9110  158.0388 N.am    1  UNL1       -0.2693
     13 C         137.2248  141.6142  157.0939 C.2     1  UNL1        0.2267
     14 O         136.3962  140.3776  157.2796 O.2     1  UNL1       -0.2748
     15 H         138.8951  142.7225  157.9169 H       1  UNL1        0.1563
     16 C         136.9269  142.5538  155.9633 C.3     1  UNL1        0.0769
     17 C         137.0009  143.9252  155.3602 C.3     1  UNL1        0.0096
     18 C         136.3370  142.8100  154.6082 C.3     1  UNL1        0.0096
     19 N         137.8174  140.5616  163.0282 N.pl3   1  UNL1       -0.3099
     20 H         137.1450  139.9519  163.4096 H       1  UNL1        0.1523
     21 C         138.2769  141.7556  163.8113 C.ar    1  UNL1        0.0829
     22 C         137.7005  143.1098  163.5214 C.ar    1  UNL1        0.0177
     23 C         138.1601  144.3038  164.3046 C.ar    1  UNL1        0.0016
     24 C         139.1960  144.1436  165.3775 C.ar    1  UNL1        0.0062
     25 C         139.7724  142.7894  165.6673 C.ar    1  UNL1        0.0727
     26 C         139.3129  141.5955  164.8842 C.ar    1  UNL1        0.1549
     27 C         140.8084  142.6292  166.7402 C.ar    1  UNL1        0.1862
     28 N         142.2417  142.2397  166.5308 N.ar    1  UNL1       -0.2033
     29 C         142.9121  142.2002  167.8720 C.ar    1  UNL1        0.1972
     30 N         141.8930  142.5653  168.9104 N.ar    1  UNL1       -0.2281
     31 C         142.1321  142.6503  170.3888 C.3     1  UNL1        0.1556
     32 N         140.5929  142.8305  168.2109 N.ar    1  UNL1       -0.1483
     33 O         139.8893  140.2413  165.1741 O.3     1  UNL1       -0.4701
     34 C         139.2268  139.3430  166.1761 C.3     1  UNL1        0.2525
@<TRIPOS>BOND
     1     7     8    1
     2     8     9   am
     3     9    10    2
     4     9     1    1
     5     1     2   ar
     6     2     3   ar
     7     3     4   ar
     8     4    12    1
     9    12    13   am
    10    13    14    2
    11    13    16    1
    12    16    17    1
    13    17    18    1
    14     4     5   ar
    15     5     6   ar
    16     6    19    1
    17    19    21    1
    18    21    22   ar
    19    22    23   ar
    20    23    24   ar
    21    24    25   ar
    22    25    27    1
    23    27    28   ar
    24    28    29   ar
    25    29    30   ar
    26    30    31    1
    27    30    32   ar
    28    25    26   ar
    29    26    33    1
    30    33    34    1
    31     6     1   ar
    32    26    21   ar
    33    18    16    1
    34    32    27   ar
    35     8    11    1
    36    12    15    1
    37    19    20    1
@<TRIPOS>MOLECULE
*****
 34 37 0 0 0
SMALL
GASTEIGER

@<TRIPOS>ATOM
      1 C         140.1720  141.2286  169.8459 C.ar    1  UNL1        0.0859
      2 C         140.7250  141.0632  171.2303 C.ar    1  UNL1        0.1060
      3 N         141.7767  142.0060  171.7355 N.ar    1  UNL1       -0.2288
      4 C         142.2752  143.1143  170.8562 C.ar    1  UNL1        0.1354
      5 C         141.7221  143.2797  169.4717 C.ar    1  UNL1        0.0492
      6 C         140.6705  142.3368  168.9666 C.ar    1  UNL1        0.0571
      7 C         138.1229  138.8473  167.4209 C.3     1  UNL1        0.1109
      8 N         139.1745  139.7901  167.9261 N.am    1  UNL1       -0.2991
      9 C         139.1204  140.2858  169.3407 C.2     1  UNL1        0.2486
     10 O         138.0146  139.8385  170.2503 O.2     1  UNL1       -0.2700
     11 H         139.9002  140.0836  167.3291 H       1  UNL1        0.1498
     12 N         143.3268  144.0571  171.3613 N.am    1  UNL1       -0.2693
     13 C         144.7349  143.9506  170.8557 C.2     1  UNL1        0.2267
     14 O         145.0916  142.9013  169.8448 O.2     1  UNL1       -0.2748
     15 H         143.0928  144.7458  172.0248 H       1  UNL1        0.1563
     16 C         145.7866  144.8935  171.3608 C.3     1  UNL1        0.0769
     17 C         147.2210  145.1844  171.6888 C.3     1  UNL1        0.0096
     18 C         146.1735  146.2355  171.9078 C.3     1  UNL1        0.0096
     19 N         140.1174  142.5023  167.5821 N.pl3   1  UNL1       -0.3099
     20 H         139.1434  142.5240  167.4405 H       1  UNL1        0.1523
     21 C         141.0484  142.6347  166.4134 C.ar    1  UNL1        0.0829
     22 C         142.4532  142.1180  166.5113 C.ar    1  UNL1        0.0177
     23 C         143.3841  142.2504  165.3426 C.ar    1  UNL1        0.0016
     24 C         142.9103  142.8994  164.0761 C.ar    1  UNL1        0.0062
     25 C         141.5055  143.4161  163.9782 C.ar    1  UNL1        0.0727
     26 C         140.5745  143.2837  165.1468 C.ar    1  UNL1        0.1549
     27 C         141.0316  144.0651  162.7116 C.ar    1  UNL1        0.1862
     28 N         140.7407  145.5246  162.5242 N.ar    1  UNL1       -0.2033
     29 C         140.2947  145.7302  161.1068 C.ar    1  UNL1        0.1972
     30 N         140.3100  144.3975  160.4183 N.ar    1  UNL1       -0.2281
     31 C         139.9357  144.1394  158.9889 C.3     1  UNL1        0.1556
     32 N         140.7654  143.3685  161.4101 N.ar    1  UNL1       -0.1483
     33 O         139.1697  143.8004  165.0489 O.3     1  UNL1       -0.4701
     34 C         138.0772  142.9101  164.5354 C.3     1  UNL1        0.2525
@<TRIPOS>BOND
     1     7     8    1
     2     8     9   am
     3     9    10    2
     4     9     1    1
     5     1     2   ar
     6     2     3   ar
     7     3     4   ar
     8     4    12    1
     9    12    13   am
    10    13    14    2
    11    13    16    1
    12    16    17    1
    13    17    18    1
    14     4     5   ar
    15     5     6   ar
    16     6    19    1
    17    19    21    1
    18    21    22   ar
    19    22    23   ar
    20    23    24   ar
    21    24    25   ar
    22    25    27    1
    23    27    28   ar
    24    28    29   ar
    25    29    30   ar
    26    30    31    1
    27    30    32   ar
    28    25    26   ar
    29    26    33    1
    30    33    34    1
    31     6     1   ar
    32    26    21   ar
    33    18    16    1
    34    32    27   ar
    35     8    11    1
    36    12    15    1
    37    19    20    1
@<TRIPOS>MOLECULE
*****
 34 37 0 0 0
SMALL
GASTEIGER

@<TRIPOS>ATOM
      1 C         143.8491  139.6524  162.1035 C.ar    1  UNL1        0.0859
      2 C         144.7325  140.3376  163.1034 C.ar    1  UNL1        0.1060
      3 N         144.5841  140.0371  164.5655 N.ar    1  UNL1       -0.2288
      4 C         143.5521  139.0515  165.0276 C.ar    1  UNL1        0.1354
      5 C         142.6687  138.3663  164.0277 C.ar    1  UNL1        0.0492
      6 C         142.8172  138.6667  162.5656 C.ar    1  UNL1        0.0571
      7 C         144.0315  141.6660  158.6885 C.3     1  UNL1        0.1109
      8 N         143.8830  141.3656  160.1506 N.am    1  UNL1       -0.2991
      9 C         143.9976  139.9528  160.6414 C.2     1  UNL1        0.2486
     10 O         144.2606  138.8405  159.6701 O.2     1  UNL1       -0.2700
     11 H         143.7104  142.0957  160.7881 H       1  UNL1        0.1498
     12 N         143.4037  138.7510  166.4897 N.am    1  UNL1       -0.2693
     13 C         142.6757  139.7116  167.3826 C.2     1  UNL1        0.2267
     14 O         142.0962  140.9727  166.8135 O.2     1  UNL1       -0.2748
     15 H         143.7840  137.9233  166.8632 H       1  UNL1        0.1563
     16 C         142.5273  139.4111  168.8447 C.3     1  UNL1        0.0769
     17 C         142.7185  138.4808  170.0056 C.3     1  UNL1        0.0096
     18 C         142.0788  139.8211  170.2161 C.3     1  UNL1        0.0096
     19 N         141.9336  137.9815  161.5656 N.pl3   1  UNL1       -0.3099
     20 H         142.2993  137.2700  160.9916 H       1  UNL1        0.1523
     21 C         140.4931  138.3801  161.4401 C.ar    1  UNL1        0.0829
     22 C         139.4838  137.8642  162.4226 C.ar    1  UNL1        0.0177
     23 C         138.0432  138.2630  162.2971 C.ar    1  UNL1        0.0016
     24 C         137.6119  139.1775  161.1891 C.ar    1  UNL1        0.0062
     25 C         138.6212  139.6934  160.2067 C.ar    1  UNL1        0.0727
     26 C         140.0617  139.2948  160.3322 C.ar    1  UNL1        0.1549
     27 C         138.1899  140.6080  159.0988 C.ar    1  UNL1        0.1862
     28 N         138.5343  142.0624  158.9716 N.ar    1  UNL1       -0.2033
     29 C         137.8958  142.5821  157.7177 C.ar    1  UNL1        0.1972
     30 N         137.1567  141.4488  157.0700 N.ar    1  UNL1       -0.2281
     31 C         136.3733  141.5226  155.7929 C.3     1  UNL1        0.1556
     32 N         137.3385  140.2288  157.9236 N.ar    1  UNL1       -0.1483
     33 O         141.0710  139.8107  159.3497 O.3     1  UNL1       -0.4701
     34 C         141.2519  139.1227  158.0291 C.3     1  UNL1        0.2525
@<TRIPOS>BOND
     1     7     8    1
     2     8     9   am
     3     9    10    2
     4     9     1    1
     5     1     2   ar
     6     2     3   ar
     7     3     4   ar
     8     4    12    1
     9    12    13   am
    10    13    14    2
    11    13    16    1
    12    16    17    1
    13    17    18    1
    14     4     5   ar
    15     5     6   ar
    16     6    19    1
    17    19    21    1
    18    21    22   ar
    19    22    23   ar
    20    23    24   ar
    21    24    25   ar
    22    25    27    1
    23    27    28   ar
    24    28    29   ar
    25    29    30   ar
    26    30    31    1
    27    30    32   ar
    28    25    26   ar
    29    26    33    1
    30    33    34    1
    31     6     1   ar
    32    26    21   ar
    33    18    16    1
    34    32    27   ar
    35     8    11    1
    36    12    15    1
    37    19    20    1
@<TRIPOS>MOLECULE
*****
 34 37 0 0 0
SMALL
GASTEIGER

@<TRIPOS>ATOM
      1 C         140.6418  140.5502  161.5351 C.ar    1  UNL1        0.0859
      2 C         141.1387  141.1318  160.2448 C.ar    1  UNL1        0.1060
      3 N         141.9507  140.2895  159.3061 N.ar    1  UNL1       -0.2288
      4 C         142.2658  138.8658  159.6576 C.ar    1  UNL1        0.1354
      5 C         141.7689  138.2843  160.9479 C.ar    1  UNL1        0.0492
      6 C         140.9569  139.1265  161.8866 C.ar    1  UNL1        0.0571
      7 C         137.5240  142.1001  163.4397 C.3     1  UNL1        0.1109
      8 N         138.3360  141.2578  162.5010 N.am    1  UNL1       -0.2991
      9 C         139.8297  141.3925  162.4738 C.2     1  UNL1        0.2486
     10 O         140.5113  142.3693  163.3854 O.2     1  UNL1       -0.2700
     11 H         137.8886  140.6167  161.9026 H       1  UNL1        0.1498
     12 N         143.0779  138.0236  158.7188 N.am    1  UNL1       -0.2693
     13 C         142.4140  137.3366  157.5625 C.2     1  UNL1        0.2267
     14 O         140.9379  137.4918  157.3448 O.2     1  UNL1       -0.2748
     15 H         144.0466  137.9217  158.8617 H       1  UNL1        0.1563
     16 C         143.2260  136.4944  156.6237 C.3     1  UNL1        0.0769
     17 C         143.6429  135.1445  156.1197 C.3     1  UNL1        0.0096
     18 C         144.2156  136.3855  155.5018 C.3     1  UNL1        0.0096
     19 N         140.4599  138.5449  163.1769 N.pl3   1  UNL1       -0.3099
     20 H         139.6221  138.0281  163.1936 H       1  UNL1        0.1523
     21 C         141.2394  138.7507  164.4418 C.ar    1  UNL1        0.0829
     22 C         142.6437  138.2346  164.5498 C.ar    1  UNL1        0.0177
     23 C         143.4232  138.4404  165.8148 C.ar    1  UNL1        0.0016
     24 C         142.7985  139.1624  166.9716 C.ar    1  UNL1        0.0062
     25 C         141.3942  139.6786  166.8636 C.ar    1  UNL1        0.0727
     26 C         140.6147  139.4727  165.5988 C.ar    1  UNL1        0.1549
     27 C         140.7695  140.4005  168.0205 C.ar    1  UNL1        0.1862
     28 N         139.8194  139.8094  169.0196 N.ar    1  UNL1       -0.2033
     29 C         139.4479  140.8839  169.9980 C.ar    1  UNL1        0.1972
     30 N         140.1683  142.1392  169.6036 N.ar    1  UNL1       -0.2281
     31 C         140.0863  143.4611  170.3078 C.3     1  UNL1        0.1556
     32 N         140.9850  141.8404  168.3815 N.ar    1  UNL1       -0.1483
     33 O         139.2104  139.9889  165.4908 O.3     1  UNL1       -0.4701
     34 C         138.0584  139.1199  165.9001 C.3     1  UNL1        0.2525
@<TRIPOS>BOND
     1     7     8    1
     2     8     9   am
     3     9    10    2
     4     9     1    1
     5     1     2   ar
     6     2     3   ar
     7     3     4   ar
     8     4    12    1
     9    12    13   am
    10    13    14    2
    11    13    16    1
    12    16    17    1
    13    17    18    1
    14     4     5   ar
    15     5     6   ar
    16     6    19    1
    17    19    21    1
    18    21    22   ar
    19    22    23   ar
    20    23    24   ar
    21    24    25   ar
    22    25    27    1
    23    27    28   ar
    24    28    29   ar
    25    29    30   ar
    26    30    31    1
    27    30    32   ar
    28    25    26   ar
    29    26    33    1
    30    33    34    1
    31     6     1   ar
    32    26    21   ar
    33    18    16    1
    34    32    27   ar
    35     8    11    1
    36    12    15    1
    37    19    20    1
@<TRIPOS>MOLECULE
*****
 34 37 0 0 0
SMALL
GASTEIGER

@<TRIPOS>ATOM
      1 C         141.5783  138.4793  162.3323 C.ar    1  UNL1        0.0859
      2 C         140.8828  138.3187  161.0131 C.ar    1  UNL1        0.1060
      3 N         141.6305  138.5645  159.7362 N.ar    1  UNL1       -0.2288
      4 C         143.0737  138.9709  159.7785 C.ar    1  UNL1        0.1354
      5 C         143.7693  139.1315  161.0977 C.ar    1  UNL1        0.0492
      6 C         143.0215  138.8857  162.3746 C.ar    1  UNL1        0.0571
      7 C         138.9294  138.8699  165.2616 C.3     1  UNL1        0.1109
      8 N         139.6771  139.1157  163.9847 N.am    1  UNL1       -0.2991
      9 C         140.8306  138.2334  163.6092 C.2     1  UNL1        0.2486
     10 O         141.2363  137.1053  164.5107 O.2     1  UNL1       -0.2700
     11 H         139.4108  139.8562  163.3930 H       1  UNL1        0.1498
     12 N         143.8214  139.2167  158.5016 N.am    1  UNL1       -0.2693
     13 C         144.1646  140.6181  158.0913 C.2     1  UNL1        0.2267
     14 O         143.7601  141.7737  158.9579 O.2     1  UNL1       -0.2748
     15 H         144.0870  138.4583  157.9328 H       1  UNL1        0.1563
     16 C         144.9123  140.8639  156.8144 C.3     1  UNL1        0.0769
     17 C         145.6672  140.3387  155.6294 C.3     1  UNL1        0.0096
     18 C         145.4525  141.8148  155.7878 C.3     1  UNL1        0.0096
     19 N         143.7172  139.0463  163.6939 N.pl3   1  UNL1       -0.3099
     20 H         144.0794  138.2576  164.1587 H       1  UNL1        0.1523
     21 C         143.8609  140.4086  164.3051 C.ar    1  UNL1        0.0829
     22 C         144.5865  141.4911  163.5623 C.ar    1  UNL1        0.0177
     23 C         144.7302  142.8534  164.1735 C.ar    1  UNL1        0.0016
     24 C         144.1483  143.1332  165.5274 C.ar    1  UNL1        0.0062
     25 C         143.4226  142.0507  166.2702 C.ar    1  UNL1        0.0727
     26 C         143.2789  140.6884  165.6590 C.ar    1  UNL1        0.1549
     27 C         142.8407  142.3304  167.6240 C.ar    1  UNL1        0.1862
     28 N         143.6171  142.5762  168.8838 N.ar    1  UNL1       -0.2033
     29 C         142.6365  142.8112  169.9942 C.ar    1  UNL1        0.1972
     30 N         141.2540  142.7107  169.4208 N.ar    1  UNL1       -0.2281
     31 C         139.9706  142.8780  170.1790 C.3     1  UNL1        0.1556
     32 N         141.3803  142.4136  167.9559 N.ar    1  UNL1       -0.1483
     33 O         142.5533  139.6059  166.4018 O.3     1  UNL1       -0.4701
     34 C         143.3259  138.5096  167.0735 C.3     1  UNL1        0.2525
@<TRIPOS>BOND
     1     7     8    1
     2     8     9   am
     3     9    10    2
     4     9     1    1
     5     1     2   ar
     6     2     3   ar
     7     3     4   ar
     8     4    12    1
     9    12    13   am
    10    13    14    2
    11    13    16    1
    12    16    17    1
    13    17    18    1
    14     4     5   ar
    15     5     6   ar
    16     6    19    1
    17    19    21    1
    18    21    22   ar
    19    22    23   ar
    20    23    24   ar
    21    24    25   ar
    22    25    27    1
    23    27    28   ar
    24    28    29   ar
    25    29    30   ar
    26    30    31    1
    27    30    32   ar
    28    25    26   ar
    29    26    33    1
    30    33    34    1
    31     6     1   ar
    32    26    21   ar
    33    18    16    1
    34    32    27   ar
    35     8    11    1
    36    12    15    1
    37    19    20    1
@<TRIPOS>MOLECULE
*****
 34 37 0 0 0
SMALL
GASTEIGER

@<TRIPOS>ATOM
      1 C         142.3257  142.8077  160.3107 C.ar    1  UNL1        0.0859
      2 C         141.7465  142.5284  158.9556 C.ar    1  UNL1        0.1060
      3 N         142.1619  141.3004  158.2010 N.ar    1  UNL1       -0.2288
      4 C         143.1565  140.3517  158.8016 C.ar    1  UNL1        0.1354
      5 C         143.7357  140.6311  160.1567 C.ar    1  UNL1        0.0492
      6 C         143.3203  141.8591  160.9113 C.ar    1  UNL1        0.0571
      7 C         140.0834  145.7623  161.7225 C.3     1  UNL1        0.1109
      8 N         140.4989  144.5343  160.9679 N.am    1  UNL1       -0.2991
      9 C         141.9102  144.0357  161.0653 C.2     1  UNL1        0.2486
     10 O         142.9062  144.7653  161.9173 O.2     1  UNL1       -0.2700
     11 H         139.8452  144.0554  160.4087 H       1  UNL1        0.1498
     12 N         143.5720  139.1237  158.0470 N.am    1  UNL1       -0.2693
     13 C         142.5861  138.0176  157.8134 C.2     1  UNL1        0.2267
     14 O         141.1847  138.1395  158.3343 O.2     1  UNL1       -0.2748
     15 H         144.4917  139.0437  157.7051 H       1  UNL1        0.1563
     16 C         143.0015  136.7896  157.0588 C.3     1  UNL1        0.0769
     17 C         143.0040  135.2974  156.9063 C.3     1  UNL1        0.0096
     18 C         143.7186  136.1549  155.9043 C.3     1  UNL1        0.0096
     19 N         143.8995  142.1384  162.2665 N.pl3   1  UNL1       -0.3099
     20 H         144.3341  143.0031  162.4474 H       1  UNL1        0.1523
     21 C         143.8167  141.1003  163.3460 C.ar    1  UNL1        0.0829
     22 C         144.9759  140.1809  163.5930 C.ar    1  UNL1        0.0177
     23 C         144.8930  139.1427  164.6726 C.ar    1  UNL1        0.0016
     24 C         143.6509  139.0240  165.5052 C.ar    1  UNL1        0.0062
     25 C         142.4917  139.9434  165.2582 C.ar    1  UNL1        0.0727
     26 C         142.5746  140.9815  164.1787 C.ar    1  UNL1        0.1549
     27 C         141.2497  139.8247  166.0907 C.ar    1  UNL1        0.1862
     28 N         141.0076  140.4902  167.4130 N.ar    1  UNL1       -0.2033
     29 C         139.6400  140.0964  167.8867 C.ar    1  UNL1        0.1972
     30 N         139.0367  139.1875  166.8571 N.ar    1  UNL1       -0.2281
     31 C         137.6773  138.5572  166.9255 C.3     1  UNL1        0.1556
     32 N         140.0316  139.0196  165.7472 N.ar    1  UNL1       -0.1483
     33 O         141.4154  141.9009  163.9317 O.3     1  UNL1       -0.4701
     34 C         141.3197  143.2025  164.6710 C.3     1  UNL1        0.2525
@<TRIPOS>BOND
     1     7     8    1
     2     8     9   am
     3     9    10    2
     4     9     1    1
     5     1     2   ar
     6     2     3   ar
     7     3     4   ar
     8     4    12    1
     9    12    13   am
    10    13    14    2
    11    13    16    1
    12    16    17    1
    13    17    18    1
    14     4     5   ar
    15     5     6   ar
    16     6    19    1
    17    19    21    1
    18    21    22   ar
    19    22    23   ar
    20    23    24   ar
    21    24    25   ar
    22    25    27    1
    23    27    28   ar
    24    28    29   ar
    25    29    30   ar
    26    30    31    1
    27    30    32   ar
    28    25    26   ar
    29    26    33    1
    30    33    34    1
    31     6     1   ar
    32    26    21   ar
    33    18    16    1
    34    32    27   ar
    35     8    11    1
    36    12    15    1
    37    19    20    1
@<TRIPOS>MOLECULE
*****
 34 37 0 0 0
SMALL
GASTEIGER

@<TRIPOS>ATOM
      1 C         140.1415  143.2102  160.7001 C.ar    1  UNL1        0.0859
      2 C         140.1023  142.5516  159.3531 C.ar    1  UNL1        0.1060
      3 N         141.3019  142.6101  158.4544 N.ar    1  UNL1       -0.2288
      4 C         142.5406  143.3273  158.9028 C.ar    1  UNL1        0.1354
      5 C         142.5798  143.9860  160.2499 C.ar    1  UNL1        0.0492
      6 C         141.3802  143.9274  161.1485 C.ar    1  UNL1        0.0571
      7 C         137.2764  141.7753  163.0415 C.3     1  UNL1        0.1109
      8 N         138.4760  141.8338  162.1429 N.am    1  UNL1       -0.2991
      9 C         138.9419  143.1517  161.5988 C.2     1  UNL1        0.2486
     10 O         138.2082  144.4110  161.9533 O.2     1  UNL1       -0.2700
     11 H         138.9575  141.0072  161.9102 H       1  UNL1        0.1498
     12 N         143.7402  143.3859  158.0042 N.am    1  UNL1       -0.2693
     13 C         144.6420  142.1938  157.8784 C.2     1  UNL1        0.2267
     14 O         144.3442  140.9432  158.6513 O.2     1  UNL1       -0.2748
     15 H         143.9357  144.2067  157.4969 H       1  UNL1        0.1563
     16 C         145.8416  142.2524  156.9798 C.3     1  UNL1        0.0769
     17 C         147.2809  142.6105  156.7562 C.3     1  UNL1        0.0096
     18 C         146.4800  141.9956  155.6469 C.3     1  UNL1        0.0096
     19 N         141.4194  144.5861  162.4956 N.pl3   1  UNL1       -0.3099
     20 H         140.9540  145.4418  162.6389 H       1  UNL1        0.1523
     21 C         142.1676  143.9412  163.6244 C.ar    1  UNL1        0.0829
     22 C         143.6662  143.9954  163.6587 C.ar    1  UNL1        0.0177
     23 C         144.4143  143.3503  164.7876 C.ar    1  UNL1        0.0016
     24 C         143.6639  142.6511  165.8820 C.ar    1  UNL1        0.0062
     25 C         142.1653  142.5969  165.8477 C.ar    1  UNL1        0.0727
     26 C         141.4171  143.2419  164.7189 C.ar    1  UNL1        0.1549
     27 C         141.4148  141.8977  166.9422 C.ar    1  UNL1        0.1862
     28 N         141.0311  140.4477  166.9611 N.ar    1  UNL1       -0.2033
     29 C         140.2954  140.1795  168.2405 C.ar    1  UNL1        0.1972
     30 N         140.2245  141.4638  169.0123 N.ar    1  UNL1       -0.2281
     31 C         139.5756  141.6530  170.3514 C.3     1  UNL1        0.1556
     32 N         140.9163  142.5257  168.2099 N.ar    1  UNL1       -0.1483
     33 O         139.9185  143.1877  164.6846 O.3     1  UNL1       -0.4701
     34 C         139.1136  144.2802  165.3238 C.3     1  UNL1        0.2525
@<TRIPOS>BOND
     1     7     8    1
     2     8     9   am
     3     9    10    2
     4     9     1    1
     5     1     2   ar
     6     2     3   ar
     7     3     4   ar
     8     4    12    1
     9    12    13   am
    10    13    14    2
    11    13    16    1
    12    16    17    1
    13    17    18    1
    14     4     5   ar
    15     5     6   ar
    16     6    19    1
    17    19    21    1
    18    21    22   ar
    19    22    23   ar
    20    23    24   ar
    21    24    25   ar
    22    25    27    1
    23    27    28   ar
    24    28    29   ar
    25    29    30   ar
    26    30    31    1
    27    30    32   ar
    28    25    26   ar
    29    26    33    1
    30    33    34    1
    31     6     1   ar
    32    26    21   ar
    33    18    16    1
    34    32    27   ar
    35     8    11    1
    36    12    15    1
    37    19    20    1
@<TRIPOS>MOLECULE
*****
 34 37 0 0 0
SMALL
GASTEIGER

@<TRIPOS>ATOM
      1 C         142.8934  140.8002  161.4392 C.ar    1  UNL1        0.0859
      2 C         143.8280  140.7554  160.2668 C.ar    1  UNL1        0.1060
      3 N         143.9162  139.5171  159.4249 N.ar    1  UNL1       -0.2288
      4 C         143.0698  138.3236  159.7553 C.ar    1  UNL1        0.1354
      5 C         142.1353  138.3684  160.9277 C.ar    1  UNL1        0.0492
      6 C         142.0470  139.6067  161.7696 C.ar    1  UNL1        0.0571
      7 C         143.9519  143.8383  163.7628 C.3     1  UNL1        0.1109
      8 N         144.0402  142.6000  162.9209 N.am    1  UNL1       -0.2991
      9 C         142.8051  142.0385  162.2811 C.2     1  UNL1        0.2486
     10 O         141.4819  142.7153  162.4832 O.2     1  UNL1       -0.2700
     11 H         144.9087  142.1558  162.7883 H       1  UNL1        0.1498
     12 N         143.1581  137.0853  158.9134 N.am    1  UNL1       -0.2693
     13 C         142.5626  137.0703  157.5368 C.2     1  UNL1        0.2267
     14 O         141.8788  138.2937  157.0020 O.2     1  UNL1       -0.2748
     15 H         143.6069  136.2824  159.2643 H       1  UNL1        0.1563
     16 C         142.6508  135.8321  156.6948 C.3     1  UNL1        0.0769
     17 C         143.4187  134.6317  156.2264 C.3     1  UNL1        0.0096
     18 C         142.0357  134.8877  155.7050 C.3     1  UNL1        0.0096
     19 N         141.1124  139.6515  162.9420 N.pl3   1  UNL1       -0.3099
     20 H         140.1496  139.7991  162.7987 H       1  UNL1        0.1523
     21 C         141.6446  139.4713  164.3328 C.ar    1  UNL1        0.0829
     22 C         142.9369  138.7421  164.5527 C.ar    1  UNL1        0.0177
     23 C         143.4691  138.5619  165.9435 C.ar    1  UNL1        0.0016
     24 C         142.7091  139.1109  167.1143 C.ar    1  UNL1        0.0062
     25 C         141.4168  139.8401  166.8944 C.ar    1  UNL1        0.0727
     26 C         140.8846  140.0203  165.5037 C.ar    1  UNL1        0.1549
     27 C         140.6568  140.3891  168.0653 C.ar    1  UNL1        0.1862
     28 N         139.5407  139.7003  168.7933 N.ar    1  UNL1       -0.2033
     29 C         139.0735  140.6088  169.8917 C.ar    1  UNL1        0.1972
     30 N         139.9009  141.8591  169.8425 N.ar    1  UNL1       -0.2281
     31 C         139.7723  143.0381  170.7608 C.3     1  UNL1        0.1556
     32 N         140.8794  141.7233  168.7137 N.ar    1  UNL1       -0.1483
     33 O         139.5923  140.7495  165.2838 O.3     1  UNL1       -0.4701
     34 C         138.3007  139.9884  165.2344 C.3     1  UNL1        0.2525
@<TRIPOS>BOND
     1     7     8    1
     2     8     9   am
     3     9    10    2
     4     9     1    1
     5     1     2   ar
     6     2     3   ar
     7     3     4   ar
     8     4    12    1
     9    12    13   am
    10    13    14    2
    11    13    16    1
    12    16    17    1
    13    17    18    1
    14     4     5   ar
    15     5     6   ar
    16     6    19    1
    17    19    21    1
    18    21    22   ar
    19    22    23   ar
    20    23    24   ar
    21    24    25   ar
    22    25    27    1
    23    27    28   ar
    24    28    29   ar
    25    29    30   ar
    26    30    31    1
    27    30    32   ar
    28    25    26   ar
    29    26    33    1
    30    33    34    1
    31     6     1   ar
    32    26    21   ar
    33    18    16    1
    34    32    27   ar
    35     8    11    1
    36    12    15    1
    37    19    20    1
