@<TRIPOS>MOLECULE
*****
 37 39 0 0 0
SMALL
GASTEIGER

@<TRIPOS>ATOM
      1 C         141.0377  138.2549  158.1257 C.ar    1  UNL1       -0.0204
      2 C         142.4563  138.0343  158.5602 C.ar    1  UNL1       -0.0028
      3 C         142.7932  137.9781  160.0207 C.ar    1  UNL1        0.0199
      4 C         141.7114  138.1424  161.0468 C.ar    1  UNL1        0.1253
      5 C         140.2928  138.3630  160.6123 C.ar    1  UNL1        0.0199
      6 C         139.9560  138.4192  159.1517 C.ar    1  UNL1       -0.0028
      7 S         142.0484  138.0862  162.5074 S.O2    1  UNL1        0.0768
      8 O         140.8385  137.2345  162.7538 O.2     1  UNL1       -0.1498
      9 O         143.2583  138.9378  162.2611 O.2     1  UNL1       -0.1498
     10 N         142.3853  138.0299  163.9680 N.am    1  UNL1       -0.1693
     11 C         141.9015  139.1085  164.8914 C.2     1  UNL1        0.3194
     12 O         141.0807  140.2432  164.3542 O.2     1  UNL1       -0.2512
     13 N         142.2385  139.0522  166.3520 N.am    1  UNL1       -0.2894
     14 H         142.9240  137.2852  164.3206 H       1  UNL1        0.1781
     15 H         142.7772  138.3074  166.7046 H       1  UNL1        0.1509
     16 C         141.7547  140.1308  167.2754 C.3     1  UNL1        0.0731
     17 C         140.3602  140.0773  167.8255 C.3     1  UNL1        0.0196
     18 C         139.8764  141.1559  168.7489 C.3     1  UNL1        0.0017
     19 C         140.7870  142.2879  169.1222 C.3     1  UNL1        0.0001
     20 C         140.3032  143.3664  170.0456 C.3     1  UNL1        0.0000
     21 C         142.1815  142.3413  168.5721 C.3     1  UNL1        0.0017
     22 C         142.6653  141.2628  167.6487 C.3     1  UNL1        0.0196
     23 C         140.7008  138.3111  156.6650 C.3     1  UNL1        0.0476
     24 C         140.3058  137.0602  155.9377 C.3     1  UNL1        0.0941
     25 C         141.5461  135.0919  154.7810 C.2     1  UNL1        0.2297
     26 O         141.0609  135.5713  153.4451 O.2     1  UNL1       -0.2746
     27 N         141.1686  135.8363  156.0273 N.am    1  UNL1       -0.3036
     28 H         141.4871  135.5217  156.9041 H       1  UNL1        0.1495
     29 C         144.0528  132.2538  155.6333 C.2     1  UNL1        0.0051
     30 C         143.4201  131.7162  154.3840 C.2     1  UNL1       -0.0442
     31 C         143.7462  130.4102  153.7222 C.3     1  UNL1        0.0261
     32 C         142.4041  132.7140  153.9127 C.3     1  UNL1        0.0387
     33 C         142.4088  133.8682  154.8707 C.3     1  UNL1        0.1416
     34 C         143.4278  133.5838  155.9341 C.2     1  UNL1        0.1771
     35 O         143.7629  134.4732  157.0945 O.2     1  UNL1       -0.2912
     36 C         144.8540  131.1871  157.8628 C.3     1  UNL1        0.0051
     37 C         145.1227  131.5797  156.4402 C.3     1  UNL1        0.0286
@<TRIPOS>BOND
     1    36    37    1
     2    37    29    1
     3    29    30    2
     4    30    31    1
     5    30    32    1
     6    32    33    1
     7    33    25    1
     8    25    26    2
     9    25    27   am
    10    27    24    1
    11    24    23    1
    12    23     1    1
    13     1     2   ar
    14     2     3   ar
    15     3     4   ar
    16     4     7    1
    17     7     8    2
    18     7     9    2
    19     7    10    1
    20    10    11   am
    21    11    12    2
    22    11    13   am
    23    13    16    1
    24    16    17    1
    25    17    18    1
    26    18    19    1
    27    19    20    1
    28    19    21    1
    29    21    22    1
    30     4     5   ar
    31     5     6   ar
    32    33    34    1
    33    34    35    2
    34    34    29    1
    35     6     1   ar
    36    22    16    1
    37    27    28    1
    38    10    14    1
    39    13    15    1
@<TRIPOS>MOLECULE
*****
 37 39 0 0 0
SMALL
GASTEIGER

@<TRIPOS>ATOM
      1 C         141.1723  138.3545  157.9315 C.ar    1  UNL1       -0.0204
      2 C         140.0350  138.5122  158.8967 C.ar    1  UNL1       -0.0028
      3 C         140.2862  138.4225  160.3727 C.ar    1  UNL1        0.0199
      4 C         141.6746  138.1751  160.8836 C.ar    1  UNL1        0.1253
      5 C         142.8119  138.0174  159.9184 C.ar    1  UNL1        0.0199
      6 C         142.5608  138.1071  158.4423 C.ar    1  UNL1       -0.0028
      7 S         141.9258  138.0854  162.3598 S.O2    1  UNL1        0.0768
      8 O         140.6126  137.3834  162.5406 O.2     1  UNL1       -0.1498
      9 O         143.2390  138.7873  162.1790 O.2     1  UNL1       -0.1498
     10 N         142.1769  137.9957  163.8358 N.am    1  UNL1       -0.1693
     11 C         141.7917  139.1346  164.7327 C.2     1  UNL1        0.3194
     12 O         141.1553  140.3632  164.1536 O.2     1  UNL1       -0.2512
     13 N         142.0429  139.0449  166.2089 N.am    1  UNL1       -0.2894
     14 H         142.5946  137.1893  164.2160 H       1  UNL1        0.1781
     15 H         142.4606  138.2385  166.5890 H       1  UNL1        0.1509
     16 C         141.6576  140.1838  167.1058 C.3     1  UNL1        0.0731
     17 C         140.3430  140.1585  167.8276 C.3     1  UNL1        0.0196
     18 C         139.9577  141.2974  168.7245 C.3     1  UNL1        0.0017
     19 C         140.8871  142.4617  168.8996 C.3     1  UNL1        0.0001
     20 C         140.5018  143.6006  169.7965 C.3     1  UNL1        0.0000
     21 C         142.2018  142.4870  168.1778 C.3     1  UNL1        0.0017
     22 C         142.5871  141.3481  167.2809 C.3     1  UNL1        0.0196
     23 C         140.9212  138.4442  156.4553 C.3     1  UNL1        0.0476
     24 C         140.4363  137.2408  155.7025 C.3     1  UNL1        0.0941
     25 C         142.3391  135.4803  155.8755 C.2     1  UNL1        0.2297
     26 O         143.2995  136.4585  155.2665 O.2     1  UNL1       -0.2746
     27 N         140.9076  135.8715  156.0935 N.am    1  UNL1       -0.3036
     28 H         140.2773  135.2294  156.4932 H       1  UNL1        0.1495
     29 C         142.9611  131.6994  156.4940 C.2     1  UNL1        0.0051
     30 C         144.1099  132.3083  157.2421 C.2     1  UNL1       -0.0442
     31 C         145.1663  131.5584  157.9982 C.3     1  UNL1        0.0261
     32 C         144.0167  133.7987  157.1015 C.3     1  UNL1        0.0387
     33 C         142.8104  134.1110  156.2664 C.3     1  UNL1        0.1416
     34 C         142.1580  132.8136  155.8910 C.2     1  UNL1        0.1771
     35 O         140.9199  132.6576  155.0587 O.2     1  UNL1       -0.2912
     36 C         143.4083  129.4021  155.3660 C.3     1  UNL1        0.0051
     37 C         142.6671  130.2337  156.3705 C.3     1  UNL1        0.0286
@<TRIPOS>BOND
     1    36    37    1
     2    37    29    1
     3    29    30    2
     4    30    31    1
     5    30    32    1
     6    32    33    1
     7    33    25    1
     8    25    26    2
     9    25    27   am
    10    27    24    1
    11    24    23    1
    12    23     1    1
    13     1     2   ar
    14     2     3   ar
    15     3     4   ar
    16     4     7    1
    17     7     8    2
    18     7     9    2
    19     7    10    1
    20    10    11   am
    21    11    12    2
    22    11    13   am
    23    13    16    1
    24    16    17    1
    25    17    18    1
    26    18    19    1
    27    19    20    1
    28    19    21    1
    29    21    22    1
    30     4     5   ar
    31     5     6   ar
    32    33    34    1
    33    34    35    2
    34    34    29    1
    35     6     1   ar
    36    22    16    1
    37    27    28    1
    38    10    14    1
    39    13    15    1
@<TRIPOS>MOLECULE
*****
 37 39 0 0 0
SMALL
GASTEIGER

@<TRIPOS>ATOM
      1 C         138.4171  141.2000  158.8941 C.ar    1  UNL1       -0.0204
      2 C         138.5091  139.7959  159.4138 C.ar    1  UNL1       -0.0028
      3 C         138.5149  139.5423  160.8922 C.ar    1  UNL1        0.0199
      4 C         138.4286  140.6928  161.8508 C.ar    1  UNL1        0.1253
      5 C         138.3365  142.0968  161.3311 C.ar    1  UNL1        0.0199
      6 C         138.3308  142.3504  159.8528 C.ar    1  UNL1       -0.0028
      7 S         138.4343  140.4391  163.3293 S.O2    1  UNL1        0.0768
      8 O         137.5066  141.6002  163.5322 O.2     1  UNL1       -0.1498
      9 O         139.3620  139.2781  163.1264 O.2     1  UNL1       -0.1498
     10 N         138.4401  140.1855  164.8076 N.am    1  UNL1       -0.1693
     11 C         139.4798  140.8307  165.6753 C.2     1  UNL1        0.3194
     12 O         140.5136  141.7296  165.0646 O.2     1  UNL1       -0.2512
     13 N         139.4855  140.5769  167.1537 N.am    1  UNL1       -0.2894
     14 H         137.7615  139.5955  165.2085 H       1  UNL1        0.1781
     15 H         138.8069  139.9870  167.5545 H       1  UNL1        0.1509
     16 C         140.5252  141.2222  168.0213 C.3     1  UNL1        0.0731
     17 C         140.2518  142.5539  168.6551 C.3     1  UNL1        0.0196
     18 C         141.2915  143.1991  169.5228 C.3     1  UNL1        0.0017
     19 C         142.6045  142.5126  169.7566 C.3     1  UNL1        0.0001
     20 C         143.6441  143.1578  170.6243 C.3     1  UNL1        0.0000
     21 C         142.8779  141.1808  169.1228 C.3     1  UNL1        0.0017
     22 C         141.8382  140.5356  168.2552 C.3     1  UNL1        0.0196
     23 C         138.4114  141.4536  157.4157 C.3     1  UNL1        0.0476
     24 C         137.5151  140.6505  156.5204 C.3     1  UNL1        0.0941
     25 C         135.0530  140.6249  155.6910 C.2     1  UNL1        0.2297
     26 O         135.5281  140.7756  154.2762 O.2     1  UNL1       -0.2746
     27 N         136.0465  140.5623  156.8131 N.am    1  UNL1       -0.3036
     28 H         135.7347  140.4634  157.7417 H       1  UNL1        0.1495
     29 C         131.4593  139.8738  156.9504 C.2     1  UNL1        0.0051
     30 C         131.1902  140.9283  155.9180 C.2     1  UNL1       -0.0442
     31 C         129.8440  141.4767  155.5481 C.3     1  UNL1        0.0261
     32 C         132.5037  141.3380  155.3206 C.3     1  UNL1        0.0387
     33 C         133.5846  140.5367  155.9837 C.3     1  UNL1        0.1416
     34 C         132.9391  139.6318  156.9910 C.2     1  UNL1        0.1771
     35 O         133.6488  138.6562  157.8823 O.2     1  UNL1       -0.2912
     36 C         129.8327  137.8850  157.3359 C.3     1  UNL1        0.0051
     37 C         130.4294  139.1827  157.7940 C.3     1  UNL1        0.0286
@<TRIPOS>BOND
     1    36    37    1
     2    37    29    1
     3    29    30    2
     4    30    31    1
     5    30    32    1
     6    32    33    1
     7    33    25    1
     8    25    26    2
     9    25    27   am
    10    27    24    1
    11    24    23    1
    12    23     1    1
    13     1     2   ar
    14     2     3   ar
    15     3     4   ar
    16     4     7    1
    17     7     8    2
    18     7     9    2
    19     7    10    1
    20    10    11   am
    21    11    12    2
    22    11    13   am
    23    13    16    1
    24    16    17    1
    25    17    18    1
    26    18    19    1
    27    19    20    1
    28    19    21    1
    29    21    22    1
    30     4     5   ar
    31     5     6   ar
    32    33    34    1
    33    34    35    2
    34    34    29    1
    35     6     1   ar
    36    22    16    1
    37    27    28    1
    38    10    14    1
    39    13    15    1
@<TRIPOS>MOLECULE
*****
 37 39 0 0 0
SMALL
GASTEIGER

@<TRIPOS>ATOM
      1 C         138.3459  143.5973  155.5143 C.ar    1  UNL1       -0.0204
      2 C         138.3460  142.8207  156.7975 C.ar    1  UNL1       -0.0028
      3 C         139.2031  143.2675  157.9446 C.ar    1  UNL1        0.0199
      4 C         140.0601  144.4910  157.8084 C.ar    1  UNL1        0.1253
      5 C         140.0600  145.2677  156.5251 C.ar    1  UNL1        0.0199
      6 C         139.2030  144.8209  155.3781 C.ar    1  UNL1       -0.0028
      7 S         140.9172  144.9378  158.9555 S.O2    1  UNL1        0.0768
      8 O         139.7298  145.6065  159.5823 O.2     1  UNL1       -0.1498
      9 O         142.1046  144.2692  158.3286 O.2     1  UNL1       -0.1498
     10 N         141.7743  145.3846  160.1025 N.am    1  UNL1       -0.1693
     11 C         141.8271  144.5702  161.3611 C.2     1  UNL1        0.3194
     12 O         141.0227  143.3091  161.4726 O.2     1  UNL1       -0.2512
     13 N         142.6843  145.0171  162.5081 N.am    1  UNL1       -0.2894
     14 H         142.3023  146.2123  160.0293 H       1  UNL1        0.1781
     15 H         143.2122  145.8448  162.4349 H       1  UNL1        0.1509
     16 C         142.7370  144.2027  163.7667 C.3     1  UNL1        0.0731
     17 C         141.4665  143.8192  164.4657 C.3     1  UNL1        0.0196
     18 C         141.5192  143.0049  165.7243 C.3     1  UNL1        0.0017
     19 C         142.8425  142.5740  166.2839 C.3     1  UNL1        0.0001
     20 C         142.8952  141.7596  167.5425 C.3     1  UNL1        0.0000
     21 C         144.1131  142.9574  165.5849 C.3     1  UNL1        0.0017
     22 C         144.0604  143.7718  164.3263 C.3     1  UNL1        0.0196
     23 C         137.4888  143.1505  154.3672 C.3     1  UNL1        0.0476
     24 C         136.8993  141.7713  154.3642 C.3     1  UNL1        0.0941
     25 C         134.9327  140.8426  155.7855 C.2     1  UNL1        0.2297
     26 O         135.9117  140.2872  156.7771 O.2     1  UNL1       -0.2746
     27 N         135.4265  141.5846  154.5791 N.am    1  UNL1       -0.3036
     28 H         134.7840  141.9491  153.9283 H       1  UNL1        0.1495
     29 C         131.3336  139.7900  156.7871 C.2     1  UNL1        0.0051
     30 C         131.0538  140.9475  155.8749 C.2     1  UNL1       -0.0442
     31 C         129.6979  141.4768  155.5126 C.3     1  UNL1        0.0261
     32 C         132.3680  141.4826  155.3887 C.3     1  UNL1        0.0387
     33 C         133.4600  140.6559  156.0004 C.3     1  UNL1        0.1416
     34 C         132.8207  139.6098  156.8646 C.2     1  UNL1        0.1771
     35 O         133.5418  138.5667  157.6657 O.2     1  UNL1       -0.2912
     36 C         129.8292  137.6741  156.8870 C.3     1  UNL1        0.0051
     37 C         130.3065  138.9586  157.4971 C.3     1  UNL1        0.0286
@<TRIPOS>BOND
     1    36    37    1
     2    37    29    1
     3    29    30    2
     4    30    31    1
     5    30    32    1
     6    32    33    1
     7    33    25    1
     8    25    26    2
     9    25    27   am
    10    27    24    1
    11    24    23    1
    12    23     1    1
    13     1     2   ar
    14     2     3   ar
    15     3     4   ar
    16     4     7    1
    17     7     8    2
    18     7     9    2
    19     7    10    1
    20    10    11   am
    21    11    12    2
    22    11    13   am
    23    13    16    1
    24    16    17    1
    25    17    18    1
    26    18    19    1
    27    19    20    1
    28    19    21    1
    29    21    22    1
    30     4     5   ar
    31     5     6   ar
    32    33    34    1
    33    34    35    2
    34    34    29    1
    35     6     1   ar
    36    22    16    1
    37    27    28    1
    38    10    14    1
    39    13    15    1
@<TRIPOS>MOLECULE
*****
 37 39 0 0 0
SMALL
GASTEIGER

@<TRIPOS>ATOM
      1 C         141.5041  143.6969  160.2561 C.ar    1  UNL1       -0.0204
      2 C         142.6246  142.8911  160.8436 C.ar    1  UNL1       -0.0028
      3 C         143.2732  141.8072  160.0348 C.ar    1  UNL1        0.0199
      4 C         142.8014  141.5290  158.6384 C.ar    1  UNL1        0.1253
      5 C         141.6809  142.3347  158.0508 C.ar    1  UNL1        0.0199
      6 C         141.0323  143.4187  158.8596 C.ar    1  UNL1       -0.0028
      7 S         143.4501  140.4450  157.8295 S.O2    1  UNL1        0.0768
      8 O         142.8438  141.0137  156.5810 O.2     1  UNL1       -0.1498
      9 O         144.0564  139.8762  159.0780 O.2     1  UNL1       -0.1498
     10 N         144.0988  139.3610  157.0207 N.am    1  UNL1       -0.1693
     11 C         143.3651  138.0790  156.7595 C.2     1  UNL1        0.3194
     12 O         141.9828  137.8810  157.3071 O.2     1  UNL1       -0.2512
     13 N         144.0139  136.9950  155.9507 N.am    1  UNL1       -0.2894
     14 H         145.0061  139.4909  156.6613 H       1  UNL1        0.1781
     15 H         144.9212  137.1249  155.5913 H       1  UNL1        0.1509
     16 C         143.2802  135.7130  155.6895 C.3     1  UNL1        0.0731
     17 C         142.3987  135.5858  154.4826 C.3     1  UNL1        0.0196
     18 C         141.6651  134.3038  154.2214 C.3     1  UNL1        0.0017
     19 C         141.8129  133.1490  155.1671 C.3     1  UNL1        0.0001
     20 C         141.0792  131.8670  154.9059 C.3     1  UNL1        0.0000
     21 C         142.6945  133.2761  156.3741 C.3     1  UNL1        0.0017
     22 C         143.4281  134.5581  156.6353 C.3     1  UNL1        0.0196
     23 C         140.8554  144.7809  161.0649 C.3     1  UNL1        0.0476
     24 C         139.6624  144.4679  161.9185 C.3     1  UNL1        0.0941
     25 C         138.6622  142.5546  163.3638 C.2     1  UNL1        0.2297
     26 O         137.4119  142.5826  162.5356 O.2     1  UNL1       -0.2746
     27 N         139.7874  143.4973  163.0553 N.am    1  UNL1       -0.3036
     28 H         140.6080  143.4789  163.5989 H       1  UNL1        0.1495
     29 C         139.4817  140.5403  166.5788 C.2     1  UNL1        0.0051
     30 C         138.4777  139.6406  165.9211 C.2     1  UNL1       -0.0442
     31 C         137.9887  138.3266  166.4543 C.3     1  UNL1        0.0261
     32 C         138.0485  140.2857  164.6368 C.3     1  UNL1        0.0387
     33 C         138.7872  141.5841  164.5006 C.3     1  UNL1        0.1416
     34 C         139.6730  141.7414  165.7008 C.2     1  UNL1        0.1771
     35 O         140.5893  142.8969  165.9750 O.2     1  UNL1       -0.2912
     36 C         139.4401  140.4975  169.1762 C.3     1  UNL1        0.0051
     37 C         140.1731  140.2839  167.8851 C.3     1  UNL1        0.0286
@<TRIPOS>BOND
     1    36    37    1
     2    37    29    1
     3    29    30    2
     4    30    31    1
     5    30    32    1
     6    32    33    1
     7    33    25    1
     8    25    26    2
     9    25    27   am
    10    27    24    1
    11    24    23    1
    12    23     1    1
    13     1     2   ar
    14     2     3   ar
    15     3     4   ar
    16     4     7    1
    17     7     8    2
    18     7     9    2
    19     7    10    1
    20    10    11   am
    21    11    12    2
    22    11    13   am
    23    13    16    1
    24    16    17    1
    25    17    18    1
    26    18    19    1
    27    19    20    1
    28    19    21    1
    29    21    22    1
    30     4     5   ar
    31     5     6   ar
    32    33    34    1
    33    34    35    2
    34    34    29    1
    35     6     1   ar
    36    22    16    1
    37    27    28    1
    38    10    14    1
    39    13    15    1
@<TRIPOS>MOLECULE
*****
 37 39 0 0 0
SMALL
GASTEIGER

@<TRIPOS>ATOM
      1 C         143.5558  144.0756  163.6507 C.ar    1  UNL1       -0.0204
      2 C         143.8115  143.2779  162.4064 C.ar    1  UNL1       -0.0028
      3 C         142.9035  143.4250  161.2215 C.ar    1  UNL1        0.0199
      4 C         141.7399  144.3697  161.2809 C.ar    1  UNL1        0.1253
      5 C         141.4843  145.1674  162.5252 C.ar    1  UNL1        0.0199
      6 C         142.3922  145.0203  163.7101 C.ar    1  UNL1       -0.0028
      7 S         140.8320  144.5167  160.0960 S.O2    1  UNL1        0.0768
      8 O         141.5783  143.4248  159.3885 O.2     1  UNL1       -0.1498
      9 O         140.0856  145.6087  160.8034 O.2     1  UNL1       -0.1498
     10 N         139.9240  144.6638  158.9111 N.am    1  UNL1       -0.1693
     11 C         140.3289  145.5356  157.7596 C.2     1  UNL1        0.3194
     12 O         141.6418  146.2603  157.7929 O.2     1  UNL1       -0.2512
     13 N         139.4209  145.6826  156.5747 N.am    1  UNL1       -0.2894
     14 H         139.0623  144.1881  158.8892 H       1  UNL1        0.1781
     15 H         138.5592  145.2069  156.5528 H       1  UNL1        0.1509
     16 C         139.8258  146.5544  155.4231 C.3     1  UNL1        0.0731
     17 C         140.6771  145.9950  154.3221 C.3     1  UNL1        0.0196
     18 C         141.0820  146.8668  153.1705 C.3     1  UNL1        0.0017
     19 C         140.6356  148.2979  153.1200 C.3     1  UNL1        0.0001
     20 C         141.0405  149.1697  151.9685 C.3     1  UNL1        0.0000
     21 C         139.7842  148.8573  154.2211 C.3     1  UNL1        0.0017
     22 C         139.3793  147.9856  155.3726 C.3     1  UNL1        0.0196
     23 C         144.4638  143.9285  164.8356 C.3     1  UNL1        0.0476
     24 C         144.0435  143.0849  166.0024 C.3     1  UNL1        0.0941
     25 C         142.7993  140.9221  165.2784 C.2     1  UNL1        0.2297
     26 O         144.0752  140.3798  164.7056 O.2     1  UNL1       -0.2746
     27 N         142.7834  142.2746  165.9268 N.am    1  UNL1       -0.3036
     28 H         141.9460  142.6304  166.3027 H       1  UNL1        0.1495
     29 C         139.8129  138.5964  164.4192 C.2     1  UNL1        0.0051
     30 C         139.3875  139.1334  165.7536 C.2     1  UNL1       -0.0442
     31 C         138.1181  138.7935  166.4768 C.3     1  UNL1        0.0261
     32 C         140.4544  140.0700  166.2379 C.3     1  UNL1        0.0387
     33 C         141.5392  140.1118  165.2028 C.3     1  UNL1        0.1416
     34 C         141.1428  139.2011  164.0788 C.2     1  UNL1        0.1771
     35 O         141.9367  138.9408  162.8330 O.2     1  UNL1       -0.2912
     36 C         138.1566  138.1276  162.4732 C.3     1  UNL1        0.0051
     37 C         139.0436  137.6253  163.5736 C.3     1  UNL1        0.0286
@<TRIPOS>BOND
     1    36    37    1
     2    37    29    1
     3    29    30    2
     4    30    31    1
     5    30    32    1
     6    32    33    1
     7    33    25    1
     8    25    26    2
     9    25    27   am
    10    27    24    1
    11    24    23    1
    12    23     1    1
    13     1     2   ar
    14     2     3   ar
    15     3     4   ar
    16     4     7    1
    17     7     8    2
    18     7     9    2
    19     7    10    1
    20    10    11   am
    21    11    12    2
    22    11    13   am
    23    13    16    1
    24    16    17    1
    25    17    18    1
    26    18    19    1
    27    19    20    1
    28    19    21    1
    29    21    22    1
    30     4     5   ar
    31     5     6   ar
    32    33    34    1
    33    34    35    2
    34    34    29    1
    35     6     1   ar
    36    22    16    1
    37    27    28    1
    38    10    14    1
    39    13    15    1
@<TRIPOS>MOLECULE
*****
 37 39 0 0 0
SMALL
GASTEIGER

@<TRIPOS>ATOM
      1 C         141.5108  143.5791  159.4667 C.ar    1  UNL1       -0.0204
      2 C         142.9447  143.2502  159.7594 C.ar    1  UNL1       -0.0028
      3 C         143.6219  142.1303  159.0265 C.ar    1  UNL1        0.0199
      4 C         142.8652  141.3393  158.0009 C.ar    1  UNL1        0.1253
      5 C         141.4313  141.6682  157.7083 C.ar    1  UNL1        0.0199
      6 C         140.7541  142.7881  158.4412 C.ar    1  UNL1       -0.0028
      7 S         143.5425  140.2193  157.2680 S.O2    1  UNL1        0.0768
      8 O         144.2053  139.7864  158.5421 O.2     1  UNL1       -0.1498
      9 O         142.8797  140.6523  155.9940 O.2     1  UNL1       -0.1498
     10 N         144.2197  139.0995  156.5351 N.am    1  UNL1       -0.1693
     11 C         143.5561  137.7578  156.4369 C.2     1  UNL1        0.3194
     12 O         142.2152  137.5361  157.0717 O.2     1  UNL1       -0.2512
     13 N         144.2334  136.6379  155.7040 N.am    1  UNL1       -0.2894
     14 H         145.0997  139.2450  156.1185 H       1  UNL1        0.1781
     15 H         145.1134  136.7835  155.2874 H       1  UNL1        0.1509
     16 C         143.5697  135.2963  155.6058 C.3     1  UNL1        0.0731
     17 C         142.7745  134.9405  154.3848 C.3     1  UNL1        0.0196
     18 C         142.1109  133.5989  154.2866 C.3     1  UNL1        0.0017
     19 C         142.2425  132.6130  155.4094 C.3     1  UNL1        0.0001
     20 C         141.5789  131.2714  155.3112 C.3     1  UNL1        0.0000
     21 C         143.0378  132.9688  156.6305 C.3     1  UNL1        0.0017
     22 C         143.7014  134.3105  156.7287 C.3     1  UNL1        0.0196
     23 C         140.8335  144.6990  160.1997 C.3     1  UNL1        0.0476
     24 C         139.8291  144.3948  161.2713 C.3     1  UNL1        0.0941
     25 C         138.7256  142.6677  162.8680 C.2     1  UNL1        0.2297
     26 O         137.5551  143.5872  163.0537 O.2     1  UNL1       -0.2746
     27 N         139.8625  143.0715  161.9768 N.am    1  UNL1       -0.3036
     28 H         140.6307  142.4679  161.8549 H       1  UNL1        0.1495
     29 C         139.2036  139.0153  164.0912 C.2     1  UNL1        0.0051
     30 C         138.4177  139.6007  165.2269 C.2     1  UNL1       -0.0442
     31 C         137.9829  138.8743  166.4651 C.3     1  UNL1        0.0261
     32 C         138.1430  141.0402  164.9069 C.3     1  UNL1        0.0387
     33 C         138.7591  141.3444  163.5735 C.3     1  UNL1        0.1416
     34 C         139.4145  140.0929  163.0694 C.2     1  UNL1        0.1771
     35 O         140.1516  139.9450  161.7713 O.2     1  UNL1       -0.2912
     36 C         141.0763  137.2519  164.4569 C.3     1  UNL1        0.0051
     37 C         139.6926  137.6005  163.9944 C.3     1  UNL1        0.0286
@<TRIPOS>BOND
     1    36    37    1
     2    37    29    1
     3    29    30    2
     4    30    31    1
     5    30    32    1
     6    32    33    1
     7    33    25    1
     8    25    26    2
     9    25    27   am
    10    27    24    1
    11    24    23    1
    12    23     1    1
    13     1     2   ar
    14     2     3   ar
    15     3     4   ar
    16     4     7    1
    17     7     8    2
    18     7     9    2
    19     7    10    1
    20    10    11   am
    21    11    12    2
    22    11    13   am
    23    13    16    1
    24    16    17    1
    25    17    18    1
    26    18    19    1
    27    19    20    1
    28    19    21    1
    29    21    22    1
    30     4     5   ar
    31     5     6   ar
    32    33    34    1
    33    34    35    2
    34    34    29    1
    35     6     1   ar
    36    22    16    1
    37    27    28    1
    38    10    14    1
    39    13    15    1
@<TRIPOS>MOLECULE
*****
 37 39 0 0 0
SMALL
GASTEIGER

@<TRIPOS>ATOM
      1 C         144.4028  143.0384  163.1684 C.ar    1  UNL1       -0.0204
      2 C         144.7542  142.0676  162.0803 C.ar    1  UNL1       -0.0028
      3 C         144.0406  142.1279  160.7623 C.ar    1  UNL1        0.0199
      4 C         142.9757  143.1589  160.5324 C.ar    1  UNL1        0.1253
      5 C         142.6243  144.1297  161.6206 C.ar    1  UNL1        0.0199
      6 C         143.3379  144.0694  162.9385 C.ar    1  UNL1       -0.0028
      7 S         142.2621  143.2191  159.2144 S.O2    1  UNL1        0.0768
      8 O         143.5730  143.0828  158.4983 O.2     1  UNL1       -0.1498
      9 O         140.9511  143.3554  159.9304 O.2     1  UNL1       -0.1498
     10 N         141.5485  143.2793  157.8964 N.am    1  UNL1       -0.1693
     11 C         141.3066  144.6034  157.2342 C.2     1  UNL1        0.3194
     12 O         141.7784  145.8672  157.8901 O.2     1  UNL1       -0.2512
     13 N         140.5930  144.6635  155.9162 N.am    1  UNL1       -0.2894
     14 H         141.2388  142.4498  157.4659 H       1  UNL1        0.1781
     15 H         140.2834  143.8340  155.4857 H       1  UNL1        0.1509
     16 C         140.3512  145.9876  155.2540 C.3     1  UNL1        0.0731
     17 C         141.0880  146.3431  153.9968 C.3     1  UNL1        0.0196
     18 C         140.8462  147.6672  153.3347 C.3     1  UNL1        0.0017
     19 C         139.8675  148.6357  153.9297 C.3     1  UNL1        0.0001
     20 C         139.6257  149.9597  153.2676 C.3     1  UNL1        0.0000
     21 C         139.1306  148.2802  155.1870 C.3     1  UNL1        0.0017
     22 C         139.3724  146.9561  155.8492 C.3     1  UNL1        0.0196
     23 C         145.1164  142.9782  164.4865 C.3     1  UNL1        0.0476
     24 C         144.3699  143.2583  165.7570 C.3     1  UNL1        0.0941
     25 C         142.7545  142.2068  167.4990 C.2     1  UNL1        0.2297
     26 O         143.6480  142.6740  168.6096 O.2     1  UNL1       -0.2746
     27 N         143.1154  142.4989  166.0728 N.am    1  UNL1       -0.3036
     28 H         142.5289  142.1923  165.3439 H       1  UNL1        0.1495
     29 C         139.5471  140.0231  167.5960 C.2     1  UNL1        0.0051
     30 C         139.5919  140.5350  169.0053 C.2     1  UNL1       -0.0442
     31 C         138.6034  140.2216  170.0890 C.3     1  UNL1        0.0261
     32 C         140.7989  141.4153  169.1405 C.3     1  UNL1        0.0387
     33 C         141.5000  141.4475  167.8148 C.3     1  UNL1        0.1416
     34 C         140.7263  140.5871  166.8603 C.2     1  UNL1        0.1771
     35 O         141.0713  140.3349  165.4224 O.2     1  UNL1       -0.2912
     36 C         138.0445  139.2898  165.6074 C.3     1  UNL1        0.0051
     37 C         138.5058  139.1080  167.0231 C.3     1  UNL1        0.0286
@<TRIPOS>BOND
     1    36    37    1
     2    37    29    1
     3    29    30    2
     4    30    31    1
     5    30    32    1
     6    32    33    1
     7    33    25    1
     8    25    26    2
     9    25    27   am
    10    27    24    1
    11    24    23    1
    12    23     1    1
    13     1     2   ar
    14     2     3   ar
    15     3     4   ar
    16     4     7    1
    17     7     8    2
    18     7     9    2
    19     7    10    1
    20    10    11   am
    21    11    12    2
    22    11    13   am
    23    13    16    1
    24    16    17    1
    25    17    18    1
    26    18    19    1
    27    19    20    1
    28    19    21    1
    29    21    22    1
    30     4     5   ar
    31     5     6   ar
    32    33    34    1
    33    34    35    2
    34    34    29    1
    35     6     1   ar
    36    22    16    1
    37    27    28    1
    38    10    14    1
    39    13    15    1
@<TRIPOS>MOLECULE
*****
 37 39 0 0 0
SMALL
GASTEIGER

@<TRIPOS>ATOM
      1 C         141.4912  143.8196  157.3202 C.ar    1  UNL1       -0.0204
      2 C         140.7291  142.5954  156.9074 C.ar    1  UNL1       -0.0028
      3 C         141.4625  141.3237  156.5996 C.ar    1  UNL1        0.0199
      4 C         142.9581  141.2762  156.7046 C.ar    1  UNL1        0.1253
      5 C         143.7202  142.5003  157.1175 C.ar    1  UNL1        0.0199
      6 C         142.9868  143.7720  157.4253 C.ar    1  UNL1       -0.0028
      7 S         143.6915  140.0044  156.3968 S.O2    1  UNL1        0.0768
      8 O         144.0351  139.8510  157.8488 O.2     1  UNL1       -0.1498
      9 O         143.3480  140.1577  154.9448 O.2     1  UNL1       -0.1498
     10 N         144.4249  138.7326  156.0890 N.am    1  UNL1       -0.1693
     11 C         143.6716  137.4402  155.9788 C.2     1  UNL1        0.3194
     12 O         142.1848  137.4195  156.1766 O.2     1  UNL1       -0.2512
     13 N         144.4050  136.1684  155.6710 N.am    1  UNL1       -0.2894
     14 H         145.4007  138.7462  155.9592 H       1  UNL1        0.1781
     15 H         145.3808  136.1820  155.5412 H       1  UNL1        0.1509
     16 C         143.6517  134.8760  155.5608 C.3     1  UNL1        0.0731
     17 C         143.7384  133.8612  156.6620 C.3     1  UNL1        0.0196
     18 C         142.9850  132.5688  156.5518 C.3     1  UNL1        0.0017
     19 C         142.1450  132.2912  155.3406 C.3     1  UNL1        0.0001
     20 C         141.3916  130.9988  155.2305 C.3     1  UNL1        0.0000
     21 C         142.0582  133.3061  154.2394 C.3     1  UNL1        0.0017
     22 C         142.8116  134.5985  154.3495 C.3     1  UNL1        0.0196
     23 C         140.7578  145.0914  157.6280 C.3     1  UNL1        0.0476
     24 C         141.1157  145.8871  158.8481 C.3     1  UNL1        0.0941
     25 C         140.6624  145.3776  161.3552 C.2     1  UNL1        0.2297
     26 O         139.4608  146.2748  161.3202 O.2     1  UNL1       -0.2746
     27 N         141.4899  145.1837  160.1192 N.am    1  UNL1       -0.3036
     28 H         142.2785  144.5949  160.1421 H       1  UNL1        0.1495
     29 C         142.3289  143.5736  164.3607 C.2     1  UNL1        0.0051
     30 C         140.8960  143.6103  164.8030 C.2     1  UNL1       -0.0442
     31 C         140.3565  143.0629  166.0911 C.3     1  UNL1        0.0261
     32 C         140.0973  144.2906  163.7309 C.3     1  UNL1        0.0387
     33 C         141.0366  144.6743  162.6261 C.3     1  UNL1        0.1416
     34 C         142.4158  144.2312  163.0154 C.2     1  UNL1        0.1771
     35 O         143.6629  144.4135  162.2021 O.2     1  UNL1       -0.2912
     36 C         144.6687  143.8267  165.4614 C.3     1  UNL1        0.0051
     37 C         143.4738  142.9830  165.1290 C.3     1  UNL1        0.0286
@<TRIPOS>BOND
     1    36    37    1
     2    37    29    1
     3    29    30    2
     4    30    31    1
     5    30    32    1
     6    32    33    1
     7    33    25    1
     8    25    26    2
     9    25    27   am
    10    27    24    1
    11    24    23    1
    12    23     1    1
    13     1     2   ar
    14     2     3   ar
    15     3     4   ar
    16     4     7    1
    17     7     8    2
    18     7     9    2
    19     7    10    1
    20    10    11   am
    21    11    12    2
    22    11    13   am
    23    13    16    1
    24    16    17    1
    25    17    18    1
    26    18    19    1
    27    19    20    1
    28    19    21    1
    29    21    22    1
    30     4     5   ar
    31     5     6   ar
    32    33    34    1
    33    34    35    2
    34    34    29    1
    35     6     1   ar
    36    22    16    1
    37    27    28    1
    38    10    14    1
    39    13    15    1
