@<TRIPOS>MOLECULE
*****
 52 57 0 0 0
SMALL
GASTEIGER

@<TRIPOS>ATOM
      1 C         142.0765  143.1127  160.4366 C.3     1  UNL1        0.0840
      2 C         141.0680  144.2212  160.3740 C.3     1  UNL1        0.0376
      3 C         141.0650  145.1676  159.2102 C.3     1  UNL1        0.0738
      4 N         142.0705  145.0054  158.1090 N.3     1  UNL1       -0.2726
      5 C         143.0791  143.8968  158.1716 C.3     1  UNL1        0.0738
      6 C         143.0821  142.9504  159.3354 C.3     1  UNL1        0.0376
      7 N         142.7384  141.6182  164.0530 N.am    1  UNL1       -0.2844
      8 C         142.7354  142.5646  162.8892 C.2     1  UNL1        0.3079
      9 O         143.3883  143.9092  163.0143 O.2     1  UNL1       -0.2522
     10 N         142.0795  142.1663  161.6003 N.am    1  UNL1       -0.2448
     11 H         142.3099  140.7357  163.9709 H       1  UNL1        0.1513
     12 C         141.4266  140.8217  161.4752 C.ar    1  UNL1        0.0574
     13 C         142.1775  139.6775  160.8611 C.ar    1  UNL1        0.0151
     14 C         141.5245  138.3329  160.7360 C.ar    1  UNL1        0.0036
     15 C         140.1207  138.1324  161.2251 C.ar    1  UNL1        0.0297
     16 C         139.3699  139.2765  161.8393 C.ar    1  UNL1        0.1414
     17 F         137.9661  139.0760  162.3283 F       1  UNL1       -0.2041
     18 C         140.0228  140.6211  161.9643 C.ar    1  UNL1        0.0446
     19 C         143.3943  142.0164  165.3418 C.3     1  UNL1        0.1177
     20 C         140.8830  142.8402  168.9839 C.ar    1  UNL1        0.0684
     21 C         142.3422  142.5270  169.1342 C.ar    1  UNL1        0.0100
     22 C         143.1793  142.2524  167.9202 C.ar    1  UNL1       -0.0019
     23 C         142.5572  142.2910  166.5559 C.ar    1  UNL1       -0.0025
     24 C         141.0980  142.6042  166.4055 C.ar    1  UNL1       -0.0019
     25 C         140.2609  142.8789  167.6196 C.ar    1  UNL1        0.0100
     26 N         139.2088  143.3895  171.4119 N.1     1  UNL1       -0.1908
     27 C         140.0459  143.1149  170.1979 C.1     1  UNL1        0.1004
     28 C         142.0675  145.9518  156.9453 C.3     1  UNL1        0.0724
     29 C         141.4743  145.5271  155.6347 C.3     1  UNL1        0.0215
     30 C         140.0779  144.9814  155.5853 C.3     1  UNL1        0.0236
     31 C         140.8506  143.7057  155.7446 C.3     1  UNL1        0.0257
     32 C         140.1271  142.3931  155.8052 C.3     1  UNL1        0.0940
     33 N         138.6308  142.3563  155.7063 N.am    1  UNL1       -0.2760
     34 C         137.9072  141.0437  155.7669 C.2     1  UNL1        0.2507
     35 O         136.4109  141.0070  155.6680 O.2     1  UNL1       -0.2698
     36 C         137.8581  143.6320  155.5470 C.3     1  UNL1        0.0940
     37 C         138.5817  144.9446  155.4865 C.3     1  UNL1        0.0257
     38 C         138.6800  139.7680  155.9262 C.ar    1  UNL1        0.0747
     39 C         139.1466  139.3386  157.2855 C.ar    1  UNL1        0.0628
     40 CL        138.8406  140.1850  158.4856 Cl      1  UNL1       -0.0821
     41 C         139.9194  138.0629  157.4449 C.ar    1  UNL1        0.0116
     42 C         140.2254  137.2166  156.2448 C.ar    1  UNL1        0.0017
     43 C         139.7587  137.6459  154.8855 C.ar    1  UNL1        0.0116
     44 C         138.9860  138.9217  154.7261 C.ar    1  UNL1        0.0628
     45 CL        138.5193  139.3511  153.3669 Cl      1  UNL1       -0.0821
     46 C         139.7902  146.4467  155.4431 C.ar    1  UNL1       -0.0204
     47 C         140.2453  147.1851  154.2193 C.ar    1  UNL1       -0.0041
     48 C         139.9575  148.6503  154.0771 C.ar    1  UNL1        0.0020
     49 C         139.2147  149.3772  155.1587 C.ar    1  UNL1        0.0296
     50 C         138.7596  148.6388  156.3825 C.ar    1  UNL1        0.1398
     51 F         138.0168  149.3657  157.4641 F       1  UNL1       -0.2042
     52 C         139.0474  147.1735  156.5247 C.ar    1  UNL1        0.0254
@<TRIPOS>BOND
     1    26    27    3
     2    27    20    1
     3    20    21   ar
     4    21    22   ar
     5    22    23   ar
     6    23    19    1
     7    19     7    1
     8     7     8   am
     9     8     9    2
    10     8    10   am
    11    10    12    1
    12    12    13   ar
    13    13    14   ar
    14    14    15   ar
    15    15    16   ar
    16    16    17    1
    17    16    18   ar
    18    10     1    1
    19     1     2    1
    20     2     3    1
    21     3     4    1
    22     4    28    1
    23    28    29    1
    24    29    30    1
    25    30    46    1
    26    46    47   ar
    27    47    48   ar
    28    48    49   ar
    29    49    50   ar
    30    50    51    1
    31    50    52   ar
    32    30    31    1
    33    31    32    1
    34    32    33    1
    35    33    34   am
    36    34    35    2
    37    34    38    1
    38    38    39   ar
    39    39    40    1
    40    39    41   ar
    41    41    42   ar
    42    42    43   ar
    43    43    44   ar
    44    44    45    1
    45    33    36    1
    46    36    37    1
    47     4     5    1
    48     5     6    1
    49    23    24   ar
    50    24    25   ar
    51    25    20   ar
    52    18    12   ar
    53     6     1    1
    54    37    30    1
    55    52    46   ar
    56    44    38   ar
    57     7    11    1
@<TRIPOS>MOLECULE
*****
 52 57 0 0 0
SMALL
GASTEIGER

@<TRIPOS>ATOM
      1 C         140.6748  140.2065  158.8246 C.3     1  UNL1        0.0840
      2 C         141.0183  139.6752  160.1846 C.3     1  UNL1        0.0376
      3 C         140.3092  140.2021  161.3968 C.3     1  UNL1        0.0738
      4 N         139.2565  141.2604  161.2491 N.3     1  UNL1       -0.2726
      5 C         138.9130  141.7918  159.8890 C.3     1  UNL1        0.0738
      6 C         139.6221  141.2649  158.6768 C.3     1  UNL1        0.0376
      7 N         141.6597  137.8564  155.7821 N.am    1  UNL1       -0.2844
      8 C         140.9505  138.3834  156.9943 C.2     1  UNL1        0.3079
      9 O         139.8080  137.6142  157.5883 O.2     1  UNL1       -0.2522
     10 N         141.3840  139.6796  157.6124 N.am    1  UNL1       -0.2448
     11 H         142.4095  138.3613  155.3922 H       1  UNL1        0.1513
     12 C         142.5265  140.4488  157.0184 C.ar    1  UNL1        0.0574
     13 C         143.9139  140.2680  157.5589 C.ar    1  UNL1        0.0151
     14 C         145.0565  141.0372  156.9648 C.ar    1  UNL1        0.0036
     15 C         144.8115  141.9872  155.8302 C.ar    1  UNL1        0.0297
     16 C         143.4241  142.1680  155.2896 C.ar    1  UNL1        0.1414
     17 F         143.1791  143.1180  154.1550 F       1  UNL1       -0.2041
     18 C         142.2815  141.3988  155.8837 C.ar    1  UNL1        0.0446
     19 C         141.2263  136.5603  155.1639 C.3     1  UNL1        0.1177
     20 C         142.9109  132.6715  156.6770 C.ar    1  UNL1        0.0684
     21 C         143.4055  133.9718  157.2377 C.ar    1  UNL1        0.0100
     22 C         142.8440  135.2681  156.7333 C.ar    1  UNL1       -0.0019
     23 C         141.7878  135.2640  155.6683 C.ar    1  UNL1       -0.0025
     24 C         141.2931  133.9637  155.1076 C.ar    1  UNL1       -0.0019
     25 C         141.8547  132.6674  155.6120 C.ar    1  UNL1        0.0100
     26 N         144.0339  130.0790  157.6858 N.1     1  UNL1       -0.1908
     27 C         143.4724  131.3752  157.1814 C.1     1  UNL1        0.1004
     28 C         138.5474  141.7874  162.4613 C.3     1  UNL1        0.0724
     29 C         138.9335  143.1175  163.0370 C.3     1  UNL1        0.0215
     30 C         140.2697  143.2900  163.6965 C.3     1  UNL1        0.0236
     31 C         139.5335  142.5660  164.7846 C.3     1  UNL1        0.0257
     32 C         140.2281  142.2451  166.0749 C.3     1  UNL1        0.0940
     33 N         141.6586  142.6481  166.2770 N.am    1  UNL1       -0.2760
     34 C         142.3532  142.3272  167.5672 C.2     1  UNL1        0.2507
     35 O         143.7838  142.7303  167.7693 O.2     1  UNL1       -0.2698
     36 C         142.3948  143.3721  165.1889 C.3     1  UNL1        0.0940
     37 C         141.7002  143.6930  163.8987 C.3     1  UNL1        0.0257
     38 C         141.6171  141.6032  168.6553 C.ar    1  UNL1        0.0747
     39 C         140.6478  142.3451  169.5272 C.ar    1  UNL1        0.0628
     40 CL        140.4147  143.8110  169.3109 Cl      1  UNL1       -0.0821
     41 C         139.9117  141.6211  170.6152 C.ar    1  UNL1        0.0116
     42 C         140.1449  140.1551  170.8314 C.ar    1  UNL1        0.0017
     43 C         141.1141  139.4133  169.9596 C.ar    1  UNL1        0.0116
     44 C         141.8502  140.1373  168.8715 C.ar    1  UNL1        0.0628
     45 CL        142.8195  139.3954  167.9996 Cl      1  UNL1       -0.0821
     46 C         140.5417  143.9541  162.3794 C.ar    1  UNL1       -0.0204
     47 C         139.6890  145.1029  161.9284 C.ar    1  UNL1       -0.0041
     48 C         139.9611  145.7670  160.6112 C.ar    1  UNL1        0.0020
     49 C         141.0857  145.2823  159.7451 C.ar    1  UNL1        0.0296
     50 C         141.9384  144.1336  160.1960 C.ar    1  UNL1        0.1398
     51 F         143.0630  143.6490  159.3298 F       1  UNL1       -0.2042
     52 C         141.6663  143.4695  161.5132 C.ar    1  UNL1        0.0254
@<TRIPOS>BOND
     1    26    27    3
     2    27    20    1
     3    20    21   ar
     4    21    22   ar
     5    22    23   ar
     6    23    19    1
     7    19     7    1
     8     7     8   am
     9     8     9    2
    10     8    10   am
    11    10    12    1
    12    12    13   ar
    13    13    14   ar
    14    14    15   ar
    15    15    16   ar
    16    16    17    1
    17    16    18   ar
    18    10     1    1
    19     1     2    1
    20     2     3    1
    21     3     4    1
    22     4    28    1
    23    28    29    1
    24    29    30    1
    25    30    46    1
    26    46    47   ar
    27    47    48   ar
    28    48    49   ar
    29    49    50   ar
    30    50    51    1
    31    50    52   ar
    32    30    31    1
    33    31    32    1
    34    32    33    1
    35    33    34   am
    36    34    35    2
    37    34    38    1
    38    38    39   ar
    39    39    40    1
    40    39    41   ar
    41    41    42   ar
    42    42    43   ar
    43    43    44   ar
    44    44    45    1
    45    33    36    1
    46    36    37    1
    47     4     5    1
    48     5     6    1
    49    23    24   ar
    50    24    25   ar
    51    25    20   ar
    52    18    12   ar
    53     6     1    1
    54    37    30    1
    55    52    46   ar
    56    44    38   ar
    57     7    11    1
@<TRIPOS>MOLECULE
*****
 52 57 0 0 0
SMALL
GASTEIGER

@<TRIPOS>ATOM
      1 C         140.6616  140.1482  158.6714 C.3     1  UNL1        0.0840
      2 C         141.0733  139.6109  160.0100 C.3     1  UNL1        0.0376
      3 C         140.4071  140.1126  161.2567 C.3     1  UNL1        0.0738
      4 N         139.3292  141.1517  161.1650 N.3     1  UNL1       -0.2726
      5 C         138.9175  141.6892  159.8264 C.3     1  UNL1        0.0738
      6 C         139.5837  141.1874  158.5796 C.3     1  UNL1        0.0376
      7 N         141.5742  137.8354  155.5782 N.am    1  UNL1       -0.2844
      8 C         140.9081  138.3372  156.8250 C.2     1  UNL1        0.3079
      9 O         139.8222  137.5297  157.4720 O.2     1  UNL1       -0.2522
     10 N         141.3278  139.6465  157.4247 N.am    1  UNL1       -0.2448
     11 H         142.2870  138.3654  155.1535 H       1  UNL1        0.1513
     12 C         142.4137  140.4540  156.7776 C.ar    1  UNL1        0.0574
     13 C         142.1432  141.8648  156.3456 C.ar    1  UNL1        0.0151
     14 C         143.2292  142.6723  155.6985 C.ar    1  UNL1        0.0036
     15 C         144.5855  142.0690  155.4834 C.ar    1  UNL1        0.0297
     16 C         144.8560  140.6582  155.9153 C.ar    1  UNL1        0.1414
     17 F         146.2123  140.0549  155.7002 F       1  UNL1       -0.2041
     18 C         143.7701  139.8507  156.5624 C.ar    1  UNL1        0.0446
     19 C         141.1546  136.5262  154.9785 C.3     1  UNL1        0.1177
     20 C         142.8163  132.6721  156.6018 C.ar    1  UNL1        0.0684
     21 C         141.7801  132.6444  155.5177 C.ar    1  UNL1        0.0100
     22 C         141.2262  133.9291  154.9766 C.ar    1  UNL1       -0.0019
     23 C         141.7085  135.2415  155.5196 C.ar    1  UNL1       -0.0025
     24 C         142.7447  135.2692  156.6037 C.ar    1  UNL1       -0.0019
     25 C         143.2986  133.9845  157.1448 C.ar    1  UNL1        0.0100
     26 N         143.9241  130.1028  157.6840 N.1     1  UNL1       -0.1908
     27 C         143.3702  131.3875  157.1429 C.1     1  UNL1        0.1004
     28 C         138.6630  141.6535  162.4117 C.3     1  UNL1        0.0724
     29 C         139.0197  143.0026  162.9617 C.3     1  UNL1        0.0215
     30 C         140.3392  143.2092  163.6447 C.3     1  UNL1        0.0236
     31 C         139.5973  142.4809  164.7260 C.3     1  UNL1        0.0257
     32 C         140.2734  142.1873  166.0324 C.3     1  UNL1        0.0940
     33 N         141.6913  142.6218  166.2575 N.am    1  UNL1       -0.2760
     34 C         142.3674  142.3282  167.5639 C.2     1  UNL1        0.2507
     35 O         143.7853  142.7628  167.7889 O.2     1  UNL1       -0.2698
     36 C         142.4332  143.3501  165.1762 C.3     1  UNL1        0.0940
     37 C         141.7570  143.6438  163.8697 C.3     1  UNL1        0.0257
     38 C         141.6256  141.5999  168.6452 C.ar    1  UNL1        0.0747
     39 C         141.8506  140.1312  168.8509 C.ar    1  UNL1        0.0628
     40 CL        142.8176  139.3908  167.9751 Cl      1  UNL1       -0.0821
     41 C         141.1088  139.4030  169.9322 C.ar    1  UNL1        0.0116
     42 C         140.1419  140.1435  170.8079 C.ar    1  UNL1        0.0017
     43 C         139.9168  141.6121  170.6023 C.ar    1  UNL1        0.0116
     44 C         140.6587  142.3404  169.5209 C.ar    1  UNL1        0.0628
     45 CL        140.4337  143.8091  169.3152 Cl      1  UNL1       -0.0821
     46 C         140.6227  143.8657  162.3261 C.ar    1  UNL1       -0.0204
     47 C         139.7671  145.0046  161.8560 C.ar    1  UNL1       -0.0041
     48 C         140.0507  145.6611  160.5374 C.ar    1  UNL1        0.0020
     49 C         141.1898  145.1788  159.6891 C.ar    1  UNL1        0.0296
     50 C         142.0454  144.0400  160.1592 C.ar    1  UNL1        0.1398
     51 F         143.1845  143.5577  159.3108 F       1  UNL1       -0.2042
     52 C         141.7618  143.3835  161.4778 C.ar    1  UNL1        0.0254
@<TRIPOS>BOND
     1    26    27    3
     2    27    20    1
     3    20    21   ar
     4    21    22   ar
     5    22    23   ar
     6    23    19    1
     7    19     7    1
     8     7     8   am
     9     8     9    2
    10     8    10   am
    11    10    12    1
    12    12    13   ar
    13    13    14   ar
    14    14    15   ar
    15    15    16   ar
    16    16    17    1
    17    16    18   ar
    18    10     1    1
    19     1     2    1
    20     2     3    1
    21     3     4    1
    22     4    28    1
    23    28    29    1
    24    29    30    1
    25    30    46    1
    26    46    47   ar
    27    47    48   ar
    28    48    49   ar
    29    49    50   ar
    30    50    51    1
    31    50    52   ar
    32    30    31    1
    33    31    32    1
    34    32    33    1
    35    33    34   am
    36    34    35    2
    37    34    38    1
    38    38    39   ar
    39    39    40    1
    40    39    41   ar
    41    41    42   ar
    42    42    43   ar
    43    43    44   ar
    44    44    45    1
    45    33    36    1
    46    36    37    1
    47     4     5    1
    48     5     6    1
    49    23    24   ar
    50    24    25   ar
    51    25    20   ar
    52    18    12   ar
    53     6     1    1
    54    37    30    1
    55    52    46   ar
    56    44    38   ar
    57     7    11    1
@<TRIPOS>MOLECULE
*****
 52 57 0 0 0
SMALL
GASTEIGER

@<TRIPOS>ATOM
      1 C         139.2681  141.1570  158.2166 C.3     1  UNL1        0.0840
      2 C         138.7432  140.6809  159.5386 C.3     1  UNL1        0.0376
      3 C         139.1449  141.3828  160.8019 C.3     1  UNL1        0.0738
      4 N         140.0717  142.5608  160.7432 N.3     1  UNL1       -0.2726
      5 C         140.5967  143.0369  159.4212 C.3     1  UNL1        0.0738
      6 C         140.1949  142.3351  158.1578 C.3     1  UNL1        0.0376
      7 N         137.1677  140.0988  155.0199 N.am    1  UNL1       -0.2844
      8 C         137.5695  140.8007  156.2832 C.2     1  UNL1        0.3079
      9 O         136.6745  141.8480  156.8765 O.2     1  UNL1       -0.2522
     10 N         138.8663  140.4551  156.9533 N.am    1  UNL1       -0.2448
     11 H         137.7551  139.4114  154.6306 H       1  UNL1        0.1513
     12 C         139.7613  139.4078  156.3600 C.ar    1  UNL1        0.0574
     13 C         139.6108  137.9728  156.7700 C.ar    1  UNL1        0.0151
     14 C         140.5058  136.9254  156.1767 C.ar    1  UNL1        0.0036
     15 C         141.5513  137.3130  155.1734 C.ar    1  UNL1        0.0297
     16 C         141.7018  138.7480  154.7634 C.ar    1  UNL1        0.1414
     17 F         142.7473  139.1357  153.7601 F       1  UNL1       -0.2041
     18 C         140.8069  139.7954  155.3567 C.ar    1  UNL1        0.0446
     19 C         135.8709  140.4443  154.3499 C.3     1  UNL1        0.1177
     20 C         131.9844  139.8920  156.5498 C.ar    1  UNL1        0.0684
     21 C         133.0375  138.8254  156.6083 C.ar    1  UNL1        0.0100
     22 C         134.3330  139.0095  155.8750 C.ar    1  UNL1       -0.0019
     23 C         134.5754  140.2602  155.0832 C.ar    1  UNL1       -0.0025
     24 C         133.5223  141.3267  155.0247 C.ar    1  UNL1       -0.0019
     25 C         132.2268  141.1426  155.7580 C.ar    1  UNL1        0.0100
     26 N         129.3934  139.5237  158.0165 N.1     1  UNL1       -0.1908
     27 C         130.6889  139.7078  157.2832 C.1     1  UNL1        0.1004
     28 C         140.4734  143.2626  162.0065 C.3     1  UNL1        0.0724
     29 C         141.9066  143.2487  162.4490 C.3     1  UNL1        0.0215
     30 C         142.4417  142.0796  163.2216 C.3     1  UNL1        0.0236
     31 C         141.6947  142.7914  164.3103 C.3     1  UNL1        0.0257
     32 C         141.6776  142.2279  165.7003 C.3     1  UNL1        0.0940
     33 N         142.4076  140.9527  166.0017 N.am    1  UNL1       -0.2760
     34 C         142.3905  140.3892  167.3917 C.2     1  UNL1        0.2507
     35 O         143.1205  139.1139  167.6930 O.2     1  UNL1       -0.2698
     36 C         143.1546  140.2409  164.9130 C.3     1  UNL1        0.0940
     37 C         143.1716  140.8044  163.5229 C.3     1  UNL1        0.0257
     38 C         141.6435  141.1010  168.4804 C.ar    1  UNL1        0.0747
     39 C         140.1988  140.7839  168.7298 C.ar    1  UNL1        0.0628
     40 CL        139.5011  139.7549  167.8905 Cl      1  UNL1       -0.0821
     41 C         139.4518  141.4957  169.8185 C.ar    1  UNL1        0.0116
     42 C         140.1496  142.5247  170.6578 C.ar    1  UNL1        0.0017
     43 C         141.5942  142.8418  170.4084 C.ar    1  UNL1        0.0116
     44 C         142.3413  142.1300  169.3197 C.ar    1  UNL1        0.0628
     45 CL        143.7860  142.4471  169.0703 Cl      1  UNL1       -0.0821
     46 C         143.0028  141.7739  161.8645 C.ar    1  UNL1       -0.0204
     47 C         143.8768  142.7766  161.1710 C.ar    1  UNL1       -0.0041
     48 C         144.4379  142.4708  159.8140 C.ar    1  UNL1        0.0020
     49 C         144.1252  141.1624  159.1504 C.ar    1  UNL1        0.0296
     50 C         143.2513  140.1598  159.8440 C.ar    1  UNL1        0.1398
     51 F         142.9386  138.8514  159.1803 F       1  UNL1       -0.2042
     52 C         142.6901  140.4655  161.2010 C.ar    1  UNL1        0.0254
@<TRIPOS>BOND
     1    26    27    3
     2    27    20    1
     3    20    21   ar
     4    21    22   ar
     5    22    23   ar
     6    23    19    1
     7    19     7    1
     8     7     8   am
     9     8     9    2
    10     8    10   am
    11    10    12    1
    12    12    13   ar
    13    13    14   ar
    14    14    15   ar
    15    15    16   ar
    16    16    17    1
    17    16    18   ar
    18    10     1    1
    19     1     2    1
    20     2     3    1
    21     3     4    1
    22     4    28    1
    23    28    29    1
    24    29    30    1
    25    30    46    1
    26    46    47   ar
    27    47    48   ar
    28    48    49   ar
    29    49    50   ar
    30    50    51    1
    31    50    52   ar
    32    30    31    1
    33    31    32    1
    34    32    33    1
    35    33    34   am
    36    34    35    2
    37    34    38    1
    38    38    39   ar
    39    39    40    1
    40    39    41   ar
    41    41    42   ar
    42    42    43   ar
    43    43    44   ar
    44    44    45    1
    45    33    36    1
    46    36    37    1
    47     4     5    1
    48     5     6    1
    49    23    24   ar
    50    24    25   ar
    51    25    20   ar
    52    18    12   ar
    53     6     1    1
    54    37    30    1
    55    52    46   ar
    56    44    38   ar
    57     7    11    1
@<TRIPOS>MOLECULE
*****
 52 57 0 0 0
SMALL
GASTEIGER

@<TRIPOS>ATOM
      1 C         141.3949  138.3584  160.4552 C.3     1  UNL1        0.0840
      2 C         140.0152  138.1517  161.0062 C.3     1  UNL1        0.0376
      3 C         139.7821  138.2117  162.4868 C.3     1  UNL1        0.0738
      4 N         140.9287  138.4784  163.4163 N.3     1  UNL1       -0.2726
      5 C         142.3085  138.6852  162.8653 C.3     1  UNL1        0.0738
      6 C         142.5416  138.6252  161.3847 C.3     1  UNL1        0.0376
      7 N         142.7668  137.1899  156.9193 N.am    1  UNL1       -0.2844
      8 C         142.5337  137.2499  158.3998 C.2     1  UNL1        0.3079
      9 O         143.2064  136.2615  159.3056 O.2     1  UNL1       -0.2522
     10 N         141.6279  138.2984  158.9746 N.am    1  UNL1       -0.2448
     11 H         142.3253  137.8387  156.3248 H       1  UNL1        0.1513
     12 C         140.9553  139.2868  158.0688 C.ar    1  UNL1        0.0574
     13 C         139.5091  139.1126  157.7107 C.ar    1  UNL1        0.0151
     14 C         138.8365  140.1011  156.8048 C.ar    1  UNL1        0.0036
     15 C         139.6100  141.2638  156.2572 C.ar    1  UNL1        0.0297
     16 C         141.0561  141.4379  156.6153 C.ar    1  UNL1        0.1414
     17 F         141.8296  142.6006  156.0677 F       1  UNL1       -0.2041
     18 C         141.7288  140.4495  157.5211 C.ar    1  UNL1        0.0446
     19 C         143.6725  136.1415  156.3445 C.3     1  UNL1        0.1177
     20 C         142.1227  131.9787  155.6236 C.ar    1  UNL1        0.0684
     21 C         141.3561  133.1631  155.1143 C.ar    1  UNL1        0.0100
     22 C         141.8727  134.5507  155.3546 C.ar    1  UNL1       -0.0019
     23 C         143.1559  134.7539  156.1042 C.ar    1  UNL1       -0.0025
     24 C         143.9225  133.5695  156.6135 C.ar    1  UNL1       -0.0019
     25 C         143.4059  132.1819  156.3732 C.ar    1  UNL1        0.0100
     26 N         141.0895  129.2036  155.1430 N.1     1  UNL1       -0.1908
     27 C         141.6061  130.5912  155.3833 C.1     1  UNL1        0.1004
     28 C         140.6957  138.5384  164.8969 C.3     1  UNL1        0.0724
     29 C         140.0993  139.7691  165.5130 C.3     1  UNL1        0.0215
     30 C         140.9094  141.0279  165.6086 C.3     1  UNL1        0.0236
     31 C         140.5210  141.0775  164.1606 C.3     1  UNL1        0.0257
     32 C         140.9799  142.2169  163.2997 C.3     1  UNL1        0.0940
     33 N         141.8271  143.3066  163.8866 N.am    1  UNL1       -0.2760
     34 C         142.2861  144.4460  163.0257 C.2     1  UNL1        0.2507
     35 O         143.1333  145.5357  163.6127 O.2     1  UNL1       -0.2698
     36 C         142.2155  143.2570  165.3346 C.3     1  UNL1        0.0940
     37 C         141.7566  142.1177  166.1956 C.3     1  UNL1        0.0257
     38 C         141.8977  144.4956  161.5777 C.ar    1  UNL1        0.0747
     39 C         142.6847  143.7204  160.5631 C.ar    1  UNL1        0.0628
     40 CL        143.8603  142.8955  160.9964 Cl      1  UNL1       -0.0821
     41 C         142.2963  143.7700  159.1151 C.ar    1  UNL1        0.0116
     42 C         141.1208  144.5949  158.6817 C.ar    1  UNL1        0.0017
     43 C         140.3337  145.3701  159.6963 C.ar    1  UNL1        0.0116
     44 C         140.7221  145.3205  161.1443 C.ar    1  UNL1        0.0628
     45 CL        139.9351  146.0957  162.1590 Cl      1  UNL1       -0.0821
     46 C         141.0164  140.5411  167.0234 C.ar    1  UNL1       -0.0204
     47 C         142.3218  140.0099  167.5370 C.ar    1  UNL1       -0.0041
     48 C         142.4288  139.5231  168.9518 C.ar    1  UNL1        0.0020
     49 C         141.2305  139.5675  169.8529 C.ar    1  UNL1        0.0296
     50 C         139.9251  140.0987  169.3392 C.ar    1  UNL1        0.1398
     51 F         138.7269  140.1431  170.2404 F       1  UNL1       -0.2042
     52 C         139.8181  140.5855  167.9245 C.ar    1  UNL1        0.0254
@<TRIPOS>BOND
     1    26    27    3
     2    27    20    1
     3    20    21   ar
     4    21    22   ar
     5    22    23   ar
     6    23    19    1
     7    19     7    1
     8     7     8   am
     9     8     9    2
    10     8    10   am
    11    10    12    1
    12    12    13   ar
    13    13    14   ar
    14    14    15   ar
    15    15    16   ar
    16    16    17    1
    17    16    18   ar
    18    10     1    1
    19     1     2    1
    20     2     3    1
    21     3     4    1
    22     4    28    1
    23    28    29    1
    24    29    30    1
    25    30    46    1
    26    46    47   ar
    27    47    48   ar
    28    48    49   ar
    29    49    50   ar
    30    50    51    1
    31    50    52   ar
    32    30    31    1
    33    31    32    1
    34    32    33    1
    35    33    34   am
    36    34    35    2
    37    34    38    1
    38    38    39   ar
    39    39    40    1
    40    39    41   ar
    41    41    42   ar
    42    42    43   ar
    43    43    44   ar
    44    44    45    1
    45    33    36    1
    46    36    37    1
    47     4     5    1
    48     5     6    1
    49    23    24   ar
    50    24    25   ar
    51    25    20   ar
    52    18    12   ar
    53     6     1    1
    54    37    30    1
    55    52    46   ar
    56    44    38   ar
    57     7    11    1
@<TRIPOS>MOLECULE
*****
 52 57 0 0 0
SMALL
GASTEIGER

@<TRIPOS>ATOM
      1 C         140.3606  143.5641  157.9453 C.3     1  UNL1        0.0840
      2 C         139.9771  144.3752  159.1473 C.3     1  UNL1        0.0376
      3 C         140.4882  143.9924  160.5046 C.3     1  UNL1        0.0738
      4 N         141.3829  142.7985  160.6599 N.3     1  UNL1       -0.2726
      5 C         141.7665  141.9874  159.4578 C.3     1  UNL1        0.0738
      6 C         141.2554  142.3701  158.1005 C.3     1  UNL1        0.0376
      7 N         139.9252  145.5092  154.5135 N.am    1  UNL1       -0.2844
      8 C         140.4364  145.1264  155.8708 C.2     1  UNL1        0.3079
      9 O         141.5343  145.9231  156.5109 O.2     1  UNL1       -0.2522
     10 N         139.8495  143.9468  156.5880 N.am    1  UNL1       -0.2448
     11 H         139.2046  144.9862  154.0934 H       1  UNL1        0.1513
     12 C         138.7516  143.1501  155.9479 C.ar    1  UNL1        0.0574
     13 C         137.3280  143.6092  156.0608 C.ar    1  UNL1        0.0151
     14 C         136.2301  142.8124  155.4206 C.ar    1  UNL1        0.0036
     15 C         136.5557  141.5566  154.6677 C.ar    1  UNL1        0.0297
     16 C         137.9792  141.0976  154.5549 C.ar    1  UNL1        0.1414
     17 F         138.3049  139.8418  153.8020 F       1  UNL1       -0.2041
     18 C         139.0772  141.8943  155.1950 C.ar    1  UNL1        0.0446
     19 C         140.5120  146.6886  153.7963 C.3     1  UNL1        0.1177
     20 C         139.2084  150.8573  154.8794 C.ar    1  UNL1        0.0684
     21 C         140.2027  150.6451  153.7766 C.ar    1  UNL1        0.0100
     22 C         140.6373  149.2556  153.4156 C.ar    1  UNL1       -0.0019
     23 C         140.0775  148.0782  154.1573 C.ar    1  UNL1       -0.0025
     24 C         139.0831  148.2903  155.2601 C.ar    1  UNL1       -0.0019
     25 C         138.6486  149.6798  155.6212 C.ar    1  UNL1        0.0100
     26 N         138.3393  153.6363  155.6014 N.1     1  UNL1       -0.1908
     27 C         138.7738  152.2468  155.2404 C.1     1  UNL1        0.1004
     28 C         141.8940  142.4158  162.0172 C.3     1  UNL1        0.0724
     29 C         142.0070  140.9687  162.3954 C.3     1  UNL1        0.0215
     30 C         141.0703  140.3834  163.4104 C.3     1  UNL1        0.0236
     31 C         141.9908  141.1473  164.3154 C.3     1  UNL1        0.0257
     32 C         141.7680  141.1312  165.7987 C.3     1  UNL1        0.0940
     33 N         140.6246  140.3513  166.3769 N.am    1  UNL1       -0.2760
     34 C         140.4017  140.3352  167.8602 C.2     1  UNL1        0.2507
     35 O         139.2583  139.5553  168.4383 O.2     1  UNL1       -0.2698
     36 C         139.7041  139.5875  165.4719 C.3     1  UNL1        0.0940
     37 C         139.9269  139.6035  163.9886 C.3     1  UNL1        0.0257
     38 C         141.3223  141.0991  168.7652 C.ar    1  UNL1        0.0747
     39 C         141.1168  142.5699  168.9759 C.ar    1  UNL1        0.0628
     40 CL        139.9907  143.2769  168.2816 Cl      1  UNL1       -0.0821
     41 C         142.0373  143.3338  169.8809 C.ar    1  UNL1        0.0116
     42 C         143.1635  142.6267  170.5753 C.ar    1  UNL1        0.0017
     43 C         143.3690  141.1560  170.3646 C.ar    1  UNL1        0.0116
     44 C         142.4484  140.3921  169.4596 C.ar    1  UNL1        0.0628
     45 CL        142.6539  138.9213  169.2488 Cl      1  UNL1       -0.0821
     46 C         140.4751  139.8228  162.1528 C.ar    1  UNL1       -0.0204
     47 C         141.3051  138.9583  161.2507 C.ar    1  UNL1       -0.0041
     48 C         140.7099  138.3977  159.9932 C.ar    1  UNL1        0.0020
     49 C         139.2847  138.7016  159.6377 C.ar    1  UNL1        0.0296
     50 C         138.4547  139.5662  160.5398 C.ar    1  UNL1        0.1398
     51 F         137.0295  139.8700  160.1842 F       1  UNL1       -0.2042
     52 C         139.0499  140.1267  161.7973 C.ar    1  UNL1        0.0254
@<TRIPOS>BOND
     1    26    27    3
     2    27    20    1
     3    20    21   ar
     4    21    22   ar
     5    22    23   ar
     6    23    19    1
     7    19     7    1
     8     7     8   am
     9     8     9    2
    10     8    10   am
    11    10    12    1
    12    12    13   ar
    13    13    14   ar
    14    14    15   ar
    15    15    16   ar
    16    16    17    1
    17    16    18   ar
    18    10     1    1
    19     1     2    1
    20     2     3    1
    21     3     4    1
    22     4    28    1
    23    28    29    1
    24    29    30    1
    25    30    46    1
    26    46    47   ar
    27    47    48   ar
    28    48    49   ar
    29    49    50   ar
    30    50    51    1
    31    50    52   ar
    32    30    31    1
    33    31    32    1
    34    32    33    1
    35    33    34   am
    36    34    35    2
    37    34    38    1
    38    38    39   ar
    39    39    40    1
    40    39    41   ar
    41    41    42   ar
    42    42    43   ar
    43    43    44   ar
    44    44    45    1
    45    33    36    1
    46    36    37    1
    47     4     5    1
    48     5     6    1
    49    23    24   ar
    50    24    25   ar
    51    25    20   ar
    52    18    12   ar
    53     6     1    1
    54    37    30    1
    55    52    46   ar
    56    44    38   ar
    57     7    11    1
@<TRIPOS>MOLECULE
*****
 52 57 0 0 0
SMALL
GASTEIGER

@<TRIPOS>ATOM
      1 C         141.0735  139.3518  160.1824 C.3     1  UNL1        0.0840
      2 C         140.1014  139.1669  159.0551 C.3     1  UNL1        0.0376
      3 C         140.4682  138.3075  157.8817 C.3     1  UNL1        0.0738
      4 N         141.8071  137.6329  157.8356 N.3     1  UNL1       -0.2726
      5 C         142.7793  137.8177  158.9629 C.3     1  UNL1        0.0738
      6 C         142.4125  138.6772  160.1363 C.3     1  UNL1        0.0376
      7 N         139.6676  140.4616  163.7238 N.am    1  UNL1       -0.2844
      8 C         140.0344  139.6022  162.5504 C.2     1  UNL1        0.3079
      9 O         139.7290  138.1338  162.5717 O.2     1  UNL1       -0.2522
     10 N         140.7067  140.2112  161.3558 N.am    1  UNL1       -0.2448
     11 H         139.8681  141.4254  163.7099 H       1  UNL1        0.1513
     12 C         141.0121  141.6796  161.3345 C.ar    1  UNL1        0.0574
     13 C         139.9728  142.6552  160.8675 C.ar    1  UNL1        0.0151
     14 C         140.2783  144.1236  160.8462 C.ar    1  UNL1        0.0036
     15 C         141.6230  144.6165  161.2920 C.ar    1  UNL1        0.0297
     16 C         142.6624  143.6409  161.7590 C.ar    1  UNL1        0.1414
     17 F         144.0071  144.1337  162.2047 F       1  UNL1       -0.2041
     18 C         142.3569  142.1725  161.7802 C.ar    1  UNL1        0.0446
     19 C         138.9954  139.8527  164.9185 C.3     1  UNL1        0.1177
     20 C         140.0201  141.2958  169.0558 C.ar    1  UNL1        0.0684
     21 C         140.4601  142.0823  167.8567 C.ar    1  UNL1        0.0100
     22 C         140.1185  141.6012  166.4776 C.ar    1  UNL1       -0.0019
     23 C         139.3369  140.3337  166.2976 C.ar    1  UNL1       -0.0025
     24 C         138.8969  139.5472  167.4966 C.ar    1  UNL1       -0.0019
     25 C         139.2385  140.0282  168.8757 C.ar    1  UNL1        0.0100
     26 N         140.7032  142.2578  171.8140 N.1     1  UNL1       -0.1908
     27 C         140.3617  141.7768  170.4349 C.1     1  UNL1        0.1004
     28 C         142.1739  136.7735  156.6622 C.3     1  UNL1        0.0724
     29 C         141.0988  136.1978  155.7890 C.3     1  UNL1        0.0215
     30 C         141.4508  135.2027  154.7232 C.3     1  UNL1        0.0236
     31 C         141.6860  134.3678  155.9470 C.3     1  UNL1        0.0257
     32 C         142.1490  132.9478  155.8085 C.3     1  UNL1        0.0940
     33 N         142.3770  132.3627  154.4463 N.am    1  UNL1       -0.2760
     34 C         142.8400  130.9427  154.3078 C.2     1  UNL1        0.2507
     35 O         143.0679  130.3577  152.9455 O.2     1  UNL1       -0.2698
     36 C         142.1418  133.1976  153.2225 C.3     1  UNL1        0.0940
     37 C         141.6788  134.6177  153.3610 C.3     1  UNL1        0.0257
     38 C         143.0752  130.1078  155.5316 C.ar    1  UNL1        0.0747
     39 C         144.2624  130.3785  156.4074 C.ar    1  UNL1        0.0628
     40 CL        145.2145  131.4841  156.0595 Cl      1  UNL1       -0.0821
     41 C         144.4975  129.5436  157.6312 C.ar    1  UNL1        0.0116
     42 C         143.5453  128.4380  157.9791 C.ar    1  UNL1        0.0017
     43 C         142.3581  128.1673  157.1033 C.ar    1  UNL1        0.0116
     44 C         142.1230  129.0022  155.8795 C.ar    1  UNL1        0.0628
     45 CL        140.9358  128.7315  155.0036 Cl      1  UNL1       -0.0821
     46 C         141.0934  136.3832  153.8696 C.ar    1  UNL1       -0.0204
     47 C         142.1340  137.0201  152.9968 C.ar    1  UNL1       -0.0041
     48 C         141.7765  138.2006  152.1432 C.ar    1  UNL1        0.0020
     49 C         140.3787  138.7443  152.1624 C.ar    1  UNL1        0.0296
     50 C         139.3382  138.1074  153.0352 C.ar    1  UNL1        0.1398
     51 F         137.9403  138.6511  153.0544 F       1  UNL1       -0.2042
     52 C         139.6956  136.9269  153.8888 C.ar    1  UNL1        0.0254
@<TRIPOS>BOND
     1    26    27    3
     2    27    20    1
     3    20    21   ar
     4    21    22   ar
     5    22    23   ar
     6    23    19    1
     7    19     7    1
     8     7     8   am
     9     8     9    2
    10     8    10   am
    11    10    12    1
    12    12    13   ar
    13    13    14   ar
    14    14    15   ar
    15    15    16   ar
    16    16    17    1
    17    16    18   ar
    18    10     1    1
    19     1     2    1
    20     2     3    1
    21     3     4    1
    22     4    28    1
    23    28    29    1
    24    29    30    1
    25    30    46    1
    26    46    47   ar
    27    47    48   ar
    28    48    49   ar
    29    49    50   ar
    30    50    51    1
    31    50    52   ar
    32    30    31    1
    33    31    32    1
    34    32    33    1
    35    33    34   am
    36    34    35    2
    37    34    38    1
    38    38    39   ar
    39    39    40    1
    40    39    41   ar
    41    41    42   ar
    42    42    43   ar
    43    43    44   ar
    44    44    45    1
    45    33    36    1
    46    36    37    1
    47     4     5    1
    48     5     6    1
    49    23    24   ar
    50    24    25   ar
    51    25    20   ar
    52    18    12   ar
    53     6     1    1
    54    37    30    1
    55    52    46   ar
    56    44    38   ar
    57     7    11    1
@<TRIPOS>MOLECULE
*****
 52 57 0 0 0
SMALL
GASTEIGER

@<TRIPOS>ATOM
      1 C         140.0581  139.2765  158.2871 C.3     1  UNL1        0.0840
      2 C         139.8494  140.7564  158.4153 C.3     1  UNL1        0.0376
      3 C         139.5022  141.3523  159.7473 C.3     1  UNL1        0.0738
      4 N         139.3635  140.4683  160.9512 N.3     1  UNL1       -0.2726
      5 C         139.5722  138.9884  160.8231 C.3     1  UNL1        0.0738
      6 C         139.9195  138.3925  159.4911 C.3     1  UNL1        0.0376
      7 N         141.9863  137.2441  155.4762 N.am    1  UNL1       -0.2844
      8 C         141.6391  137.8400  156.8082 C.2     1  UNL1        0.3079
      9 O         142.5254  137.5954  157.9933 O.2     1  UNL1       -0.2522
     10 N         140.4054  138.6806  156.9551 N.am    1  UNL1       -0.2448
     11 H         141.4046  137.4047  154.6984 H       1  UNL1        0.1513
     12 C         139.5190  138.9252  155.7700 C.ar    1  UNL1        0.0574
     13 C         139.6663  140.1860  154.9709 C.ar    1  UNL1        0.0151
     14 C         138.7799  140.4307  153.7857 C.ar    1  UNL1        0.0036
     15 C         137.7463  139.4145  153.3997 C.ar    1  UNL1        0.0297
     16 C         137.5990  138.1536  154.1989 C.ar    1  UNL1        0.1414
     17 F         136.5654  137.1374  153.8129 F       1  UNL1       -0.2041
     18 C         138.4854  137.9090  155.3840 C.ar    1  UNL1        0.0446
     19 C         143.2199  136.4035  155.3293 C.3     1  UNL1        0.1177
     20 C         143.0432  131.9841  156.1581 C.ar    1  UNL1        0.0684
     21 C         143.5649  132.9232  157.2049 C.ar    1  UNL1        0.0100
     22 C         143.6238  134.3963  156.9286 C.ar    1  UNL1       -0.0019
     23 C         143.1610  134.9304  155.6056 C.ar    1  UNL1       -0.0025
     24 C         142.6393  133.9913  154.5588 C.ar    1  UNL1       -0.0019
     25 C         142.5804  132.5181  154.8350 C.ar    1  UNL1        0.0100
     26 N         142.9254  129.0377  156.7107 N.1     1  UNL1       -0.1908
     27 C         142.9843  130.5109  156.4344 C.1     1  UNL1        0.1004
     28 C         139.0163  141.0643  162.2832 C.3     1  UNL1        0.0724
     29 C         139.3572  142.4952  162.5765 C.3     1  UNL1        0.0215
     30 C         140.6042  142.8276  163.3410 C.3     1  UNL1        0.0236
     31 C         139.8310  142.1061  164.4047 C.3     1  UNL1        0.0257
     32 C         140.4230  141.9274  165.7714 C.3     1  UNL1        0.0940
     33 N         141.7880  142.4703  166.0743 N.am    1  UNL1       -0.2760
     34 C         142.3800  142.2917  167.4409 C.2     1  UNL1        0.2507
     35 O         143.7451  142.8346  167.7437 O.2     1  UNL1       -0.2698
     36 C         142.5612  143.1919  165.0105 C.3     1  UNL1        0.0940
     37 C         141.9692  143.3705  163.6439 C.3     1  UNL1        0.0257
     38 C         141.6068  141.5701  168.5047 C.ar    1  UNL1        0.0747
     39 C         141.8497  140.1102  168.7484 C.ar    1  UNL1        0.0628
     40 CL        142.8657  139.3717  167.9284 Cl      1  UNL1       -0.0821
     41 C         141.0765  139.3886  169.8122 C.ar    1  UNL1        0.0116
     42 C         140.0604  140.1271  170.6322 C.ar    1  UNL1        0.0017
     43 C         139.8176  141.5871  170.3884 C.ar    1  UNL1        0.0116
     44 C         140.5908  142.3086  169.3247 C.ar    1  UNL1        0.0628
     45 CL        140.3480  143.7686  169.0808 Cl      1  UNL1       -0.0821
     46 C         140.9442  143.4337  162.0117 C.ar    1  UNL1       -0.0204
     47 C         140.0724  144.5081  161.4323 C.ar    1  UNL1       -0.0041
     48 C         140.4125  145.1142  160.1030 C.ar    1  UNL1        0.0020
     49 C         141.6243  144.6460  159.3532 C.ar    1  UNL1        0.0296
     50 C         142.4961  143.5716  159.9326 C.ar    1  UNL1        0.1398
     51 F         143.7079  143.1034  159.1827 F       1  UNL1       -0.2042
     52 C         142.1560  142.9655  161.2619 C.ar    1  UNL1        0.0254
@<TRIPOS>BOND
     1    26    27    3
     2    27    20    1
     3    20    21   ar
     4    21    22   ar
     5    22    23   ar
     6    23    19    1
     7    19     7    1
     8     7     8   am
     9     8     9    2
    10     8    10   am
    11    10    12    1
    12    12    13   ar
    13    13    14   ar
    14    14    15   ar
    15    15    16   ar
    16    16    17    1
    17    16    18   ar
    18    10     1    1
    19     1     2    1
    20     2     3    1
    21     3     4    1
    22     4    28    1
    23    28    29    1
    24    29    30    1
    25    30    46    1
    26    46    47   ar
    27    47    48   ar
    28    48    49   ar
    29    49    50   ar
    30    50    51    1
    31    50    52   ar
    32    30    31    1
    33    31    32    1
    34    32    33    1
    35    33    34   am
    36    34    35    2
    37    34    38    1
    38    38    39   ar
    39    39    40    1
    40    39    41   ar
    41    41    42   ar
    42    42    43   ar
    43    43    44   ar
    44    44    45    1
    45    33    36    1
    46    36    37    1
    47     4     5    1
    48     5     6    1
    49    23    24   ar
    50    24    25   ar
    51    25    20   ar
    52    18    12   ar
    53     6     1    1
    54    37    30    1
    55    52    46   ar
    56    44    38   ar
    57     7    11    1
@<TRIPOS>MOLECULE
*****
 52 57 0 0 0
SMALL
GASTEIGER

@<TRIPOS>ATOM
      1 C         142.0668  139.5666  159.7790 C.3     1  UNL1        0.0840
      2 C         142.1893  140.7096  158.8155 C.3     1  UNL1        0.0376
      3 C         142.5630  140.4490  157.3863 C.3     1  UNL1        0.0738
      4 N         142.8143  139.0454  156.9207 N.3     1  UNL1       -0.2726
      5 C         142.6918  137.9023  157.8843 C.3     1  UNL1        0.0738
      6 C         142.3180  138.1629  159.3134 C.3     1  UNL1        0.0376
      7 N         142.3811  140.1187  163.6965 N.am    1  UNL1       -0.2844
      8 C         142.7548  139.8581  162.2673 C.2     1  UNL1        0.3079
      9 O         144.1902  139.6285  161.8974 O.2     1  UNL1       -0.2522
     10 N         141.6931  139.8271  161.2082 N.am    1  UNL1       -0.2448
     11 H         141.4390  140.2694  163.9393 H       1  UNL1        0.1513
     12 C         140.2577  140.0567  161.5781 C.ar    1  UNL1        0.0574
     13 C         139.3971  138.9017  161.9969 C.ar    1  UNL1        0.0151
     14 C         137.9617  139.1314  162.3669 C.ar    1  UNL1        0.0036
     15 C         137.3869  140.5160  162.3181 C.ar    1  UNL1        0.0297
     16 C         138.2475  141.6710  161.8993 C.ar    1  UNL1        0.1414
     17 F         137.6727  143.0556  161.8505 F       1  UNL1       -0.2041
     18 C         139.6828  141.4414  161.5293 C.ar    1  UNL1        0.0446
     19 C         143.4428  140.1496  164.7557 C.3     1  UNL1        0.1177
     20 C         142.3638  141.2152  168.9924 C.ar    1  UNL1        0.0684
     21 C         142.7224  142.2954  168.0155 C.ar    1  UNL1        0.0100
     22 C         143.0821  141.9402  166.6032 C.ar    1  UNL1       -0.0019
     23 C         143.0831  140.5048  166.1679 C.ar    1  UNL1       -0.0025
     24 C         142.7245  139.4246  167.1449 C.ar    1  UNL1       -0.0019
     25 C         142.3649  139.7798  168.5571 C.ar    1  UNL1        0.0100
     26 N         141.6445  141.9256  171.8170 N.1     1  UNL1       -0.1908
     27 C         142.0042  141.5704  170.4047 C.1     1  UNL1        0.1004
     28 C         143.1880  138.7849  155.4916 C.3     1  UNL1        0.0724
     29 C         142.6205  137.5971  154.7726 C.3     1  UNL1        0.0215
     30 C         141.1462  137.3249  154.8213 C.3     1  UNL1        0.0236
     31 C         141.1324  138.8235  154.7592 C.3     1  UNL1        0.0257
     32 C         139.8270  139.5623  154.7616 C.3     1  UNL1        0.0940
     33 N         138.5353  138.8025  154.8260 N.am    1  UNL1       -0.2760
     34 C         137.2298  139.5413  154.8283 C.2     1  UNL1        0.2507
     35 O         135.9382  138.7814  154.8927 O.2     1  UNL1       -0.2698
     36 C         138.5490  137.3039  154.8880 C.3     1  UNL1        0.0940
     37 C         139.8545  136.5651  154.8856 C.3     1  UNL1        0.0257
     38 C         137.2161  141.0400  154.7663 C.ar    1  UNL1        0.0747
     39 C         137.1811  141.8427  156.0329 C.ar    1  UNL1        0.0628
     40 CL        137.1597  141.1469  157.3615 Cl      1  UNL1       -0.0821
     41 C         137.1674  143.3414  155.9708 C.ar    1  UNL1        0.0116
     42 C         137.1887  144.0373  154.6421 C.ar    1  UNL1        0.0017
     43 C         137.2237  143.2345  153.3756 C.ar    1  UNL1        0.0116
     44 C         137.2375  141.7358  153.4376 C.ar    1  UNL1        0.0628
     45 CL        137.2725  140.9330  152.1710 Cl      1  UNL1       -0.0821
     46 C         141.6720  135.9208  154.8664 C.ar    1  UNL1       -0.0204
     47 C         141.8562  135.1477  153.5942 C.ar    1  UNL1       -0.0041
     48 C         142.3819  133.7436  153.6393 C.ar    1  UNL1        0.0020
     49 C         142.7235  133.1126  154.9565 C.ar    1  UNL1        0.0296
     50 C         142.5393  133.8857  156.2287 C.ar    1  UNL1        0.1398
     51 F         142.8809  133.2546  157.5459 F       1  UNL1       -0.2042
     52 C         142.0135  135.2898  156.1836 C.ar    1  UNL1        0.0254
@<TRIPOS>BOND
     1    26    27    3
     2    27    20    1
     3    20    21   ar
     4    21    22   ar
     5    22    23   ar
     6    23    19    1
     7    19     7    1
     8     7     8   am
     9     8     9    2
    10     8    10   am
    11    10    12    1
    12    12    13   ar
    13    13    14   ar
    14    14    15   ar
    15    15    16   ar
    16    16    17    1
    17    16    18   ar
    18    10     1    1
    19     1     2    1
    20     2     3    1
    21     3     4    1
    22     4    28    1
    23    28    29    1
    24    29    30    1
    25    30    46    1
    26    46    47   ar
    27    47    48   ar
    28    48    49   ar
    29    49    50   ar
    30    50    51    1
    31    50    52   ar
    32    30    31    1
    33    31    32    1
    34    32    33    1
    35    33    34   am
    36    34    35    2
    37    34    38    1
    38    38    39   ar
    39    39    40    1
    40    39    41   ar
    41    41    42   ar
    42    42    43   ar
    43    43    44   ar
    44    44    45    1
    45    33    36    1
    46    36    37    1
    47     4     5    1
    48     5     6    1
    49    23    24   ar
    50    24    25   ar
    51    25    20   ar
    52    18    12   ar
    53     6     1    1
    54    37    30    1
    55    52    46   ar
    56    44    38   ar
    57     7    11    1
