@<TRIPOS>MOLECULE
*****
 28 32 0 0 0
SMALL
GASTEIGER

@<TRIPOS>ATOM
      1 C         139.2102  141.5671  163.7264 C.ar    1  UNL1        0.1059
      2 C         140.3213  141.8750  162.7668 C.ar    1  UNL1        0.0239
      3 C         140.0523  141.9010  161.2913 C.ar    1  UNL1        0.0377
      4 C         138.6724  141.6192  160.7754 C.ar    1  UNL1        0.1535
      5 N         137.5613  141.3113  161.7350 N.ar    1  UNL1       -0.1329
      6 N         137.8302  141.2853  163.2104 N.ar    1  UNL1       -0.1467
      7 N         138.4035  141.6452  159.3000 N.pl3   1  UNL1       -0.2918
      8 C         137.8553  140.5125  158.4835 C.3     1  UNL1        0.0936
      9 C         137.7485  140.9757  157.0609 C.3     1  UNL1        0.0385
     10 C         137.3438  140.5619  155.6770 C.3     1  UNL1        0.0703
     11 N         137.5758  141.7252  154.7590 N.3     1  UNL1       -0.2974
     12 C         138.1240  142.8579  155.5753 C.3     1  UNL1        0.0703
     13 C         138.2307  142.3947  156.9980 C.3     1  UNL1        0.0385
     14 C         138.6355  142.8085  158.3818 C.3     1  UNL1        0.0936
     15 H         136.6959  142.0051  154.3256 H       1  UNL1        0.1232
     16 O         138.5166  139.1316  165.3347 O.3     1  UNL1       -0.5055
     17 C         139.1323  140.3234  166.0060 C.ar    1  UNL1        0.1351
     18 C         139.4012  140.2973  167.4814 C.ar    1  UNL1        0.0365
     19 C         140.0169  141.4891  168.1528 C.ar    1  UNL1        0.0025
     20 C         140.3637  142.7068  167.3486 C.ar    1  UNL1        0.0000
     21 C         140.0949  142.7328  165.8731 C.ar    1  UNL1        0.0046
     22 C         139.4791  141.5411  165.2018 C.ar    1  UNL1        0.0531
     23 H         138.2999  138.3709  165.8370 H       1  UNL1        0.2922
     24 C         140.2857  141.4629  169.6282 C.2     1  UNL1        0.0250
     25 C         140.4727  140.2348  170.4689 C.2     1  UNL1        0.1194
     26 N         140.7173  140.6734  171.8823 N.2     1  UNL1       -0.1510
     27 N         140.6816  142.1725  171.9153 N.2     1  UNL1       -0.1695
     28 C         140.4149  142.6606  170.5222 C.3     1  UNL1        0.1771
@<TRIPOS>BOND
     1    16    17    1
     2    17    18   ar
     3    18    19   ar
     4    19    24    1
     5    24    25    2
     6    25    26    1
     7    26    27    2
     8    27    28    1
     9    19    20   ar
    10    20    21   ar
    11    21    22   ar
    12    22     1    1
    13     1     2   ar
    14     2     3   ar
    15     3     4   ar
    16     4     7    1
    17     7     8    1
    18     9     8    1
    19     9    10    1
    20    10    11    1
    21    11    12    1
    22    13    12    1
    23    13    14    1
    24     4     5   ar
    25     5     6   ar
    26    22    17   ar
    27     6     1   ar
    28    28    24    1
    29    14     7    1
    30    13     9    1
    31    16    23    1
    32    11    15    1
@<TRIPOS>MOLECULE
*****
 28 32 0 0 0
SMALL
GASTEIGER

@<TRIPOS>ATOM
      1 C         141.3500  143.5085  163.6185 C.ar    1  UNL1        0.1059
      2 C         140.1761  143.2018  162.7366 C.ar    1  UNL1        0.0239
      3 C         140.2177  143.5609  161.2808 C.ar    1  UNL1        0.0377
      4 C         141.4332  144.2266  160.7069 C.ar    1  UNL1        0.1535
      5 N         142.6071  144.5334  161.5889 N.ar    1  UNL1       -0.1329
      6 N         142.5655  144.1744  163.0447 N.ar    1  UNL1       -0.1467
      7 N         141.4748  144.5857  159.2512 N.pl3   1  UNL1       -0.2918
      8 C         140.5537  145.5411  158.5520 C.3     1  UNL1        0.0936
      9 C         140.9545  145.5982  157.1076 C.3     1  UNL1        0.0385
     10 C         140.6329  146.2241  155.7829 C.3     1  UNL1        0.0703
     11 N         141.6028  145.6907  154.7707 N.3     1  UNL1       -0.2974
     12 C         142.5239  144.7353  155.4698 C.3     1  UNL1        0.0703
     13 C         142.1232  144.6781  156.9141 C.3     1  UNL1        0.0385
     14 C         142.4448  144.0523  158.2389 C.3     1  UNL1        0.0936
     15 H         142.1407  146.4585  154.3686 H       1  UNL1        0.1232
     16 O         143.7578  142.2948  164.9334 O.3     1  UNL1       -0.5055
     17 C         142.5123  142.5426  165.7318 C.ar    1  UNL1        0.1351
     18 C         142.4708  142.1836  167.1875 C.ar    1  UNL1        0.0365
     19 C         141.2253  142.4314  167.9860 C.ar    1  UNL1        0.0025
     20 C         140.0214  143.0383  167.3285 C.ar    1  UNL1        0.0000
     21 C         140.0629  143.3974  165.8727 C.ar    1  UNL1        0.0046
     22 C         141.3084  143.1495  165.0744 C.ar    1  UNL1        0.0531
     23 H         144.5099  141.9156  165.3441 H       1  UNL1        0.2922
     24 C         141.1838  142.0724  169.4417 C.2     1  UNL1        0.0250
     25 C         140.2973  142.6956  170.4788 C.2     1  UNL1        0.1194
     26 N         140.5873  142.0353  171.7940 N.2     1  UNL1       -0.1510
     27 N         141.6530  141.0040  171.5699 N.2     1  UNL1       -0.1695
     28 C         142.0217  141.0268  170.1161 C.3     1  UNL1        0.1771
@<TRIPOS>BOND
     1    16    17    1
     2    17    18   ar
     3    18    19   ar
     4    19    24    1
     5    24    25    2
     6    25    26    1
     7    26    27    2
     8    27    28    1
     9    19    20   ar
    10    20    21   ar
    11    21    22   ar
    12    22     1    1
    13     1     2   ar
    14     2     3   ar
    15     3     4   ar
    16     4     7    1
    17     7     8    1
    18     9     8    1
    19     9    10    1
    20    10    11    1
    21    11    12    1
    22    13    12    1
    23    13    14    1
    24     4     5   ar
    25     5     6   ar
    26    22    17   ar
    27     6     1   ar
    28    28    24    1
    29    14     7    1
    30    13     9    1
    31    16    23    1
    32    11    15    1
@<TRIPOS>MOLECULE
*****
 28 32 0 0 0
SMALL
GASTEIGER

@<TRIPOS>ATOM
      1 C         139.2495  141.5923  163.7390 C.ar    1  UNL1        0.1059
      2 C         138.3066  142.6060  163.1617 C.ar    1  UNL1        0.0239
      3 C         138.0470  142.6331  161.6845 C.ar    1  UNL1        0.0377
      4 C         138.7304  141.6465  160.7847 C.ar    1  UNL1        0.1535
      5 N         139.6734  140.6328  161.3621 N.ar    1  UNL1       -0.1329
      6 N         139.9329  140.6057  162.8391 N.ar    1  UNL1       -0.1467
      7 N         138.4708  141.6736  159.3077 N.pl3   1  UNL1       -0.2918
      8 C         138.7206  142.8334  158.3896 C.3     1  UNL1        0.0936
      9 C         138.3201  142.4223  157.0038 C.3     1  UNL1        0.0385
     10 C         138.2269  142.8850  155.5800 C.3     1  UNL1        0.0703
     11 N         137.6720  141.7571  154.7615 N.3     1  UNL1       -0.2974
     12 C         137.4222  140.5973  155.6794 C.3     1  UNL1        0.0703
     13 C         137.8227  141.0084  157.0653 C.3     1  UNL1        0.0385
     14 C         137.9159  140.5457  158.4891 C.3     1  UNL1        0.0936
     15 H         138.3425  141.4899  154.0408 H       1  UNL1        0.1232
     16 O         138.6345  139.1212  165.3248 O.3     1  UNL1       -0.5055
     17 C         139.2016  140.3296  166.0091 C.ar    1  UNL1        0.1351
     18 C         139.4611  140.3025  167.4861 C.ar    1  UNL1        0.0365
     19 C         140.0282  141.5109  168.1704 C.ar    1  UNL1        0.0025
     20 C         140.3357  142.7465  167.3774 C.ar    1  UNL1        0.0000
     21 C         140.0762  142.7736  165.9003 C.ar    1  UNL1        0.0046
     22 C         139.5091  141.5652  165.2161 C.ar    1  UNL1        0.0531
     23 H         138.4424  138.3493  165.8201 H       1  UNL1        0.2922
     24 C         140.2878  141.4837  169.6474 C.2     1  UNL1        0.0250
     25 C         140.3593  142.6777  170.5523 C.2     1  UNL1        0.1194
     26 N         140.6371  142.1895  171.9432 N.2     1  UNL1       -0.1510
     27 N         140.7372  140.6936  171.8979 N.2     1  UNL1       -0.1695
     28 C         140.5213  140.2573  170.4791 C.3     1  UNL1        0.1771
@<TRIPOS>BOND
     1    16    17    1
     2    17    18   ar
     3    18    19   ar
     4    19    24    1
     5    24    25    2
     6    25    26    1
     7    26    27    2
     8    27    28    1
     9    19    20   ar
    10    20    21   ar
    11    21    22   ar
    12    22     1    1
    13     1     2   ar
    14     2     3   ar
    15     3     4   ar
    16     4     7    1
    17     7     8    1
    18     9     8    1
    19     9    10    1
    20    10    11    1
    21    11    12    1
    22    13    12    1
    23    13    14    1
    24     4     5   ar
    25     5     6   ar
    26    22    17   ar
    27     6     1   ar
    28    28    24    1
    29    14     7    1
    30    13     9    1
    31    16    23    1
    32    11    15    1
@<TRIPOS>MOLECULE
*****
 28 32 0 0 0
SMALL
GASTEIGER

@<TRIPOS>ATOM
      1 C         139.4440  140.7231  163.6694 C.ar    1  UNL1        0.1059
      2 C         138.0740  140.4864  163.1064 C.ar    1  UNL1        0.0239
      3 C         137.8879  140.3324  161.6259 C.ar    1  UNL1        0.0377
      4 C         139.0717  140.4151  160.7085 C.ar    1  UNL1        0.1535
      5 N         140.4418  140.6519  161.2716 N.ar    1  UNL1       -0.1329
      6 N         140.6279  140.8059  162.7519 N.ar    1  UNL1       -0.1467
      7 N         138.8855  140.2611  159.2282 N.pl3   1  UNL1       -0.2918
      8 C         139.5672  139.2504  158.3542 C.3     1  UNL1        0.0936
      9 C         139.0880  139.4554  156.9476 C.3     1  UNL1        0.0385
     10 C         139.2131  138.9574  155.5383 C.3     1  UNL1        0.0703
     11 N         138.3126  139.7871  154.6719 N.3     1  UNL1       -0.2974
     12 C         137.6309  140.7978  155.5458 C.3     1  UNL1        0.0703
     13 C         138.1101  140.5928  156.9523 C.3     1  UNL1        0.0385
     14 C         137.9850  141.0908  158.3617 C.3     1  UNL1        0.0936
     15 H         137.6165  139.1904  154.2248 H       1  UNL1        0.1232
     16 O         140.7651  143.1827  164.7670 O.3     1  UNL1       -0.5055
     17 C         140.2907  142.1070  165.6987 C.ar    1  UNL1        0.1351
     18 C         140.4769  142.2610  167.1790 C.ar    1  UNL1        0.0365
     19 C         140.0026  141.1852  168.1106 C.ar    1  UNL1        0.0025
     20 C         139.3420  139.9555  167.5617 C.ar    1  UNL1        0.0000
     21 C         139.1558  139.8014  166.0813 C.ar    1  UNL1        0.0046
     22 C         139.6302  140.8772  165.1498 C.ar    1  UNL1        0.0531
     23 H         141.1777  143.9509  165.1099 H       1  UNL1        0.2922
     24 C         140.1888  141.3394  169.5909 C.2     1  UNL1        0.0250
     25 C         140.4986  140.2374  170.5602 C.2     1  UNL1        0.1194
     26 N         140.5992  140.8396  171.9303 N.2     1  UNL1       -0.1510
     27 N         140.3516  142.3139  171.8078 N.2     1  UNL1       -0.1695
     28 C         140.0980  142.6228  170.3621 C.3     1  UNL1        0.1771
@<TRIPOS>BOND
     1    16    17    1
     2    17    18   ar
     3    18    19   ar
     4    19    24    1
     5    24    25    2
     6    25    26    1
     7    26    27    2
     8    27    28    1
     9    19    20   ar
    10    20    21   ar
    11    21    22   ar
    12    22     1    1
    13     1     2   ar
    14     2     3   ar
    15     3     4   ar
    16     4     7    1
    17     7     8    1
    18     9     8    1
    19     9    10    1
    20    10    11    1
    21    11    12    1
    22    13    12    1
    23    13    14    1
    24     4     5   ar
    25     5     6   ar
    26    22    17   ar
    27     6     1   ar
    28    28    24    1
    29    14     7    1
    30    13     9    1
    31    16    23    1
    32    11    15    1
@<TRIPOS>MOLECULE
*****
 28 32 0 0 0
SMALL
GASTEIGER

@<TRIPOS>ATOM
      1 C         141.0537  139.5156  163.7234 C.ar    1  UNL1        0.1059
      2 C         141.5136  140.5079  162.6968 C.ar    1  UNL1        0.0239
      3 C         141.6444  140.0951  161.2606 C.ar    1  UNL1        0.0377
      4 C         141.3154  138.6901  160.8510 C.ar    1  UNL1        0.1535
      5 N         140.8555  137.6978  161.8777 N.ar    1  UNL1       -0.1329
      6 N         140.7246  138.1105  163.3138 N.ar    1  UNL1       -0.1467
      7 N         141.4462  138.2774  159.4150 N.pl3   1  UNL1       -0.2918
      8 C         142.6781  137.7182  158.7670 C.3     1  UNL1        0.0936
      9 C         142.3614  137.4466  157.3261 C.3     1  UNL1        0.0385
     10 C         142.9270  136.9332  156.0352 C.3     1  UNL1        0.0703
     11 N         141.8489  137.0071  154.9949 N.3     1  UNL1       -0.2974
     12 C         140.6170  137.5663  155.6429 C.3     1  UNL1        0.0703
     13 C         140.9338  137.8379  157.0837 C.3     1  UNL1        0.0385
     14 C         140.3681  138.3513  158.3746 C.3     1  UNL1        0.0936
     15 H         141.6553  136.0744  154.6302 H       1  UNL1        0.1232
     16 O         138.5213  138.9392  165.2249 O.3     1  UNL1       -0.5055
     17 C         139.6567  139.6401  165.9103 C.ar    1  UNL1        0.1351
     18 C         139.5258  140.0528  167.3464 C.ar    1  UNL1        0.0365
     19 C         140.6611  140.7537  168.0319 C.ar    1  UNL1        0.0025
     20 C         141.9273  141.0419  167.2811 C.ar    1  UNL1        0.0000
     21 C         142.0582  140.6292  165.8449 C.ar    1  UNL1        0.0046
     22 C         140.9228  139.9283  165.1595 C.ar    1  UNL1        0.0531
     23 H         137.7303  138.7592  165.6938 H       1  UNL1        0.2922
     24 C         140.5302  141.1663  169.4680 C.2     1  UNL1        0.0250
     25 C         140.8208  140.3069  170.6624 C.2     1  UNL1        0.1194
     26 N         140.5558  141.1204  171.8945 N.2     1  UNL1       -0.1510
     27 N         140.1013  142.4827  171.4615 N.2     1  UNL1       -0.1695
     28 C         140.0855  142.5112  169.9619 C.3     1  UNL1        0.1771
@<TRIPOS>BOND
     1    16    17    1
     2    17    18   ar
     3    18    19   ar
     4    19    24    1
     5    24    25    2
     6    25    26    1
     7    26    27    2
     8    27    28    1
     9    19    20   ar
    10    20    21   ar
    11    21    22   ar
    12    22     1    1
    13     1     2   ar
    14     2     3   ar
    15     3     4   ar
    16     4     7    1
    17     7     8    1
    18     9     8    1
    19     9    10    1
    20    10    11    1
    21    11    12    1
    22    13    12    1
    23    13    14    1
    24     4     5   ar
    25     5     6   ar
    26    22    17   ar
    27     6     1   ar
    28    28    24    1
    29    14     7    1
    30    13     9    1
    31    16    23    1
    32    11    15    1
@<TRIPOS>MOLECULE
*****
 28 32 0 0 0
SMALL
GASTEIGER

@<TRIPOS>ATOM
      1 C         142.8241  141.7961  163.7614 C.ar    1  UNL1        0.1059
      2 C         143.9866  140.9225  163.3935 C.ar    1  UNL1        0.0239
      3 C         144.4238  140.8193  161.9623 C.ar    1  UNL1        0.0377
      4 C         143.6985  141.5896  160.8990 C.ar    1  UNL1        0.1535
      5 N         142.5359  142.4632  161.2670 N.ar    1  UNL1       -0.1329
      6 N         142.0987  142.5665  162.6981 N.ar    1  UNL1       -0.1467
      7 N         144.1356  141.4864  159.4679 N.pl3   1  UNL1       -0.2918
      8 C         144.8682  142.5403  158.6915 C.3     1  UNL1        0.0936
      9 C         145.1023  142.0163  157.3056 C.3     1  UNL1        0.0385
     10 C         145.6998  142.3439  155.9693 C.3     1  UNL1        0.0703
     11 N         145.4812  141.1686  155.0633 N.3     1  UNL1       -0.2974
     12 C         144.7487  140.1147  155.8396 C.3     1  UNL1        0.0703
     13 C         144.5145  140.6386  157.2255 C.3     1  UNL1        0.0385
     14 C         143.9171  140.3111  158.5618 C.3     1  UNL1        0.0936
     15 H         146.3796  140.8037  154.7468 H       1  UNL1        0.1232
     16 O         139.9225  141.5106  164.4676 O.3     1  UNL1       -0.5055
     17 C         140.9360  141.7566  165.5457 C.ar    1  UNL1        0.1351
     18 C         140.4988  141.8599  166.9767 C.ar    1  UNL1        0.0365
     19 C         141.5124  142.1060  168.0548 C.ar    1  UNL1        0.0025
     20 C         142.9632  142.2487  167.7017 C.ar    1  UNL1        0.0000
     21 C         143.4004  142.1455  166.2705 C.ar    1  UNL1        0.0046
     22 C         142.3869  141.8994  165.1925 C.ar    1  UNL1        0.0531
     23 H         139.0162  141.4214  164.6881 H       1  UNL1        0.2922
     24 C         141.0751  142.2092  169.4859 C.2     1  UNL1        0.0250
     25 C         141.6603  141.4559  170.6433 C.2     1  UNL1        0.1194
     26 N         140.9226  141.8651  171.8836 N.2     1  UNL1       -0.1510
     27 N         139.8813  142.8714  171.4926 N.2     1  UNL1       -0.1695
     28 C         139.9755  143.0842  170.0108 C.3     1  UNL1        0.1771
@<TRIPOS>BOND
     1    16    17    1
     2    17    18   ar
     3    18    19   ar
     4    19    24    1
     5    24    25    2
     6    25    26    1
     7    26    27    2
     8    27    28    1
     9    19    20   ar
    10    20    21   ar
    11    21    22   ar
    12    22     1    1
    13     1     2   ar
    14     2     3   ar
    15     3     4   ar
    16     4     7    1
    17     7     8    1
    18     9     8    1
    19     9    10    1
    20    10    11    1
    21    11    12    1
    22    13    12    1
    23    13    14    1
    24     4     5   ar
    25     5     6   ar
    26    22    17   ar
    27     6     1   ar
    28    28    24    1
    29    14     7    1
    30    13     9    1
    31    16    23    1
    32    11    15    1
@<TRIPOS>MOLECULE
*****
 28 32 0 0 0
SMALL
GASTEIGER

@<TRIPOS>ATOM
      1 C         142.5979  142.6403  163.5806 C.ar    1  UNL1        0.1059
      2 C         142.9876  141.3906  162.8483 C.ar    1  UNL1        0.0239
      3 C         143.3086  141.4486  161.3842 C.ar    1  UNL1        0.0377
      4 C         143.2400  142.7561  160.6524 C.ar    1  UNL1        0.1535
      5 N         142.8502  144.0059  161.3848 N.ar    1  UNL1       -0.1329
      6 N         142.5292  143.9480  162.8489 N.ar    1  UNL1       -0.1467
      7 N         143.5610  142.8140  159.1884 N.pl3   1  UNL1       -0.2918
      8 C         142.7098  143.4392  158.1231 C.3     1  UNL1        0.0936
      9 C         143.4123  143.2685  156.8088 C.3     1  UNL1        0.0385
     10 C         143.3204  143.5494  155.3382 C.3     1  UNL1        0.0703
     11 N         144.5490  142.9922  154.6823 N.3     1  UNL1       -0.2974
     12 C         145.4002  142.3671  155.7475 C.3     1  UNL1        0.0703
     13 C         144.6977  142.5378  157.0618 C.3     1  UNL1        0.0385
     14 C         144.7896  142.2569  158.5324 C.3     1  UNL1        0.0936
     15 H         145.0656  143.7416  154.2219 H       1  UNL1        0.1232
     16 O         139.8397  143.3276  164.5397 O.3     1  UNL1       -0.5055
     17 C         140.8978  142.9261  165.5243 C.ar    1  UNL1        0.1351
     18 C         140.5767  142.8682  166.9883 C.ar    1  UNL1        0.0365
     19 C         141.6348  142.4667  167.9730 C.ar    1  UNL1        0.0025
     20 C         143.0139  142.1230  167.4934 C.ar    1  UNL1        0.0000
     21 C         143.3349  142.1809  166.0293 C.ar    1  UNL1        0.0046
     22 C         142.2769  142.5824  165.0447 C.ar    1  UNL1        0.0531
     23 H         138.9782  143.5423  164.8392 H       1  UNL1        0.2922
     24 C         141.3136  142.4088  169.4370 C.2     1  UNL1        0.0250
     25 C         139.9749  142.6782  170.0574 C.2     1  UNL1        0.1194
     26 N         140.1088  142.5073  171.5416 N.2     1  UNL1       -0.1510
     27 N         141.5304  142.1322  171.8385 N.2     1  UNL1       -0.1695
     28 C         142.2751  142.0714  170.5378 C.3     1  UNL1        0.1771
@<TRIPOS>BOND
     1    16    17    1
     2    17    18   ar
     3    18    19   ar
     4    19    24    1
     5    24    25    2
     6    25    26    1
     7    26    27    2
     8    27    28    1
     9    19    20   ar
    10    20    21   ar
    11    21    22   ar
    12    22     1    1
    13     1     2   ar
    14     2     3   ar
    15     3     4   ar
    16     4     7    1
    17     7     8    1
    18     9     8    1
    19     9    10    1
    20    10    11    1
    21    11    12    1
    22    13    12    1
    23    13    14    1
    24     4     5   ar
    25     5     6   ar
    26    22    17   ar
    27     6     1   ar
    28    28    24    1
    29    14     7    1
    30    13     9    1
    31    16    23    1
    32    11    15    1
@<TRIPOS>MOLECULE
*****
 28 32 0 0 0
SMALL
GASTEIGER

@<TRIPOS>ATOM
      1 C         140.2148  143.2787  163.1114 C.ar    1  UNL1        0.1059
      2 C         140.9019  141.9983  163.4836 C.ar    1  UNL1        0.0239
      3 C         140.9585  141.5674  164.9193 C.ar    1  UNL1        0.0377
      4 C         140.3280  142.4168  165.9827 C.ar    1  UNL1        0.1535
      5 N         139.6409  143.6972  165.6105 N.ar    1  UNL1       -0.1329
      6 N         139.5843  144.1281  164.1749 N.ar    1  UNL1       -0.1467
      7 N         140.3846  141.9859  167.4183 N.pl3   1  UNL1       -0.2918
      8 C         139.9612  140.6509  167.9555 C.3     1  UNL1        0.0936
      9 C         140.1895  140.6542  169.4381 C.3     1  UNL1        0.0385
     10 C         140.0689  139.8312  170.6863 C.3     1  UNL1        0.0703
     11 N         140.5588  140.6596  171.8368 N.3     1  UNL1       -0.2974
     12 C         140.9822  141.9946  171.2996 C.3     1  UNL1        0.0703
     13 C         140.7540  141.9913  169.8171 C.3     1  UNL1        0.0385
     14 C         140.8746  142.8143  168.5689 C.3     1  UNL1        0.0936
     15 H         141.3520  140.1984  172.2824 H       1  UNL1        0.1232
     16 O         140.6908  146.1508  162.3876 O.3     1  UNL1       -0.5055
     17 C         140.3962  145.1457  161.3138 C.ar    1  UNL1        0.1351
     18 C         140.3396  145.5767  159.8783 C.ar    1  UNL1        0.0365
     19 C         140.0449  144.5716  158.8044 C.ar    1  UNL1        0.0025
     20 C         139.8069  143.1355  159.1663 C.ar    1  UNL1        0.0000
     21 C         139.8636  142.7045  160.6020 C.ar    1  UNL1        0.0046
     22 C         140.1582  143.7096  161.6757 C.ar    1  UNL1        0.0531
     23 H         140.8395  147.0479  162.1616 H       1  UNL1        0.2922
     24 C         139.9883  145.0026  157.3689 C.2     1  UNL1        0.0250
     25 C         139.4455  144.1960  156.2267 C.2     1  UNL1        0.1194
     26 N         139.5864  145.0110  154.9753 N.2     1  UNL1       -0.1510
     27 N         140.2162  146.3214  155.3441 N.2     1  UNL1       -0.1695
     28 C         140.4647  146.3163  156.8234 C.3     1  UNL1        0.1771
@<TRIPOS>BOND
     1    16    17    1
     2    17    18   ar
     3    18    19   ar
     4    19    24    1
     5    24    25    2
     6    25    26    1
     7    26    27    2
     8    27    28    1
     9    19    20   ar
    10    20    21   ar
    11    21    22   ar
    12    22     1    1
    13     1     2   ar
    14     2     3   ar
    15     3     4   ar
    16     4     7    1
    17     7     8    1
    18     9     8    1
    19     9    10    1
    20    10    11    1
    21    11    12    1
    22    13    12    1
    23    13    14    1
    24     4     5   ar
    25     5     6   ar
    26    22    17   ar
    27     6     1   ar
    28    28    24    1
    29    14     7    1
    30    13     9    1
    31    16    23    1
    32    11    15    1
@<TRIPOS>MOLECULE
*****
 28 32 0 0 0
SMALL
GASTEIGER

@<TRIPOS>ATOM
      1 C         141.1137  139.5472  163.8552 C.ar    1  UNL1        0.1059
      2 C         141.9219  138.3339  163.5019 C.ar    1  UNL1        0.0239
      3 C         142.0609  137.9170  162.0677 C.ar    1  UNL1        0.0377
      4 C         141.3918  138.7133  160.9868 C.ar    1  UNL1        0.1535
      5 N         140.5836  139.9266  161.3402 N.ar    1  UNL1       -0.1329
      6 N         140.4446  140.3435  162.7743 N.ar    1  UNL1       -0.1467
      7 N         141.5309  138.2963  159.5528 N.pl3   1  UNL1       -0.2918
      8 C         142.7574  137.7081  158.9204 C.3     1  UNL1        0.0936
      9 C         142.4524  137.4426  157.4760 C.3     1  UNL1        0.0385
     10 C         143.0219  136.9150  156.1925 C.3     1  UNL1        0.0703
     11 N         141.9589  137.0130  155.1389 N.3     1  UNL1       -0.2974
     12 C         140.7323  137.6012  155.7711 C.3     1  UNL1        0.0703
     13 C         141.0373  137.8667  157.2155 C.3     1  UNL1        0.0385
     14 C         140.4678  138.3943  158.4990 C.3     1  UNL1        0.0936
     15 H         141.7481  136.0848  154.7724 H       1  UNL1        0.1232
     16 O         143.3133  141.0914  165.1883 O.3     1  UNL1       -0.5055
     17 C         142.0744  140.7363  165.9559 C.ar    1  UNL1        0.1351
     18 C         141.9354  141.1532  167.3900 C.ar    1  UNL1        0.0365
     19 C         140.6965  140.7981  168.1577 C.ar    1  UNL1        0.0025
     20 C         139.5968  140.0260  167.4911 C.ar    1  UNL1        0.0000
     21 C         139.7358  139.6090  166.0569 C.ar    1  UNL1        0.0046
     22 C         140.9747  139.9642  165.2893 C.ar    1  UNL1        0.0531
     23 H         144.0003  141.5737  165.6046 H       1  UNL1        0.2922
     24 C         140.5576  141.2152  169.5917 C.2     1  UNL1        0.0250
     25 C         140.0075  142.5221  170.0807 C.2     1  UNL1        0.1194
     26 N         140.0543  142.5131  171.5799 N.2     1  UNL1       -0.1510
     27 N         140.6333  141.2005  172.0176 N.2     1  UNL1       -0.1695
     28 C         140.9444  140.3983  170.7889 C.3     1  UNL1        0.1771
@<TRIPOS>BOND
     1    16    17    1
     2    17    18   ar
     3    18    19   ar
     4    19    24    1
     5    24    25    2
     6    25    26    1
     7    26    27    2
     8    27    28    1
     9    19    20   ar
    10    20    21   ar
    11    21    22   ar
    12    22     1    1
    13     1     2   ar
    14     2     3   ar
    15     3     4   ar
    16     4     7    1
    17     7     8    1
    18     9     8    1
    19     9    10    1
    20    10    11    1
    21    11    12    1
    22    13    12    1
    23    13    14    1
    24     4     5   ar
    25     5     6   ar
    26    22    17   ar
    27     6     1   ar
    28    28    24    1
    29    14     7    1
    30    13     9    1
    31    16    23    1
    32    11    15    1
