@<TRIPOS>MOLECULE
*****
 34 39 0 0 0
SMALL
GASTEIGER

@<TRIPOS>ATOM
      1 N         139.4601  140.6823  160.0420 N.pl3   1  UNL1       -0.3039
      2 C         140.5861  139.7191  159.8082 C.3     1  UNL1        0.0923
      3 C         140.9843  138.5288  160.6296 C.3     1  UNL1        0.0387
      4 C         140.3550  138.0077  161.8876 C.3     1  UNL1        0.0739
      5 N         139.1721  138.5481  162.6349 N.3     1  UNL1       -0.2712
      6 C         138.3263  139.7433  162.3088 C.3     1  UNL1        0.0938
      7 C         138.4544  140.6930  161.1549 C.3     1  UNL1        0.1081
      8 C         140.2151  142.9826  159.0995 C.ar    1  UNL1       -0.0044
      9 C         140.0767  144.0801  158.0865 C.ar    1  UNL1        0.0161
     10 C         139.0447  143.9749  157.0029 C.ar    1  UNL1        0.0812
     11 N         138.1512  142.7721  156.9324 N.ar    1  UNL1       -0.2865
     12 C         137.0512  142.3930  155.9857 C.ar    1  UNL1        0.1022
     13 C         136.5099  141.0612  156.4137 C.ar    1  UNL1        0.1196
     14 N         137.2753  140.6171  157.6249 N.ar    1  UNL1       -0.2236
     15 C         138.2897  141.6745  157.9455 C.ar    1  UNL1        0.1609
     16 C         139.3217  141.7798  159.0290 C.ar    1  UNL1        0.0788
     17 C         140.8746  143.6545  161.5210 C.3     1  UNL1        0.0051
     18 C         141.2471  143.0878  160.1831 C.3     1  UNL1        0.0278
     19 C         138.7836  137.7938  163.8718 C.3     1  UNL1        0.0722
     20 C         138.9239  138.4389  165.2188 C.3     1  UNL1        0.0194
     21 C         140.1058  139.3150  165.5114 C.3     1  UNL1        0.0229
     22 C         140.2461  139.9600  166.8583 C.3     1  UNL1        0.0934
     23 N         139.2045  139.7289  167.9127 N.am    1  UNL1       -0.2795
     24 C         139.3447  140.3739  169.2596 C.2     1  UNL1        0.2276
     25 O         138.3032  140.1428  170.3140 O.2     1  UNL1       -0.2748
     26 C         138.0226  138.8528  167.6201 C.3     1  UNL1        0.0934
     27 C         137.8823  138.2078  166.2731 C.3     1  UNL1        0.0229
     28 C         140.5266  141.2500  169.5522 C.3     1  UNL1        0.1062
     29 C         140.5168  142.7481  169.6262 C.3     1  UNL1        0.0411
     30 C         141.9099  143.2058  169.9418 C.3     1  UNL1        0.1158
     31 C         143.3091  142.7376  170.2118 C.3     1  UNL1        0.0321
     32 C         143.3190  141.2395  170.1378 C.3     1  UNL1        0.0325
     33 C         141.9258  140.7818  169.8221 C.3     1  UNL1        0.1238
     34 O         141.0551  141.9971  169.7010 O.3     1  UNL1       -0.3582
@<TRIPOS>BOND
     1    17    18    1
     2    18     8    1
     3     8     9   ar
     4     9    10   ar
     5    10    11   ar
     6    11    12   ar
     7    12    13   ar
     8    13    14   ar
     9    14    15   ar
    10    15    16   ar
    11    16     1    1
    12     1     2    1
    13     2     3    1
    14     3     4    1
    15     4     5    1
    16     5    19    1
    17    19    20    1
    18    20    21    1
    19    21    22    1
    20    22    23    1
    21    23    24   am
    22    24    25    2
    23    28    24    1
    24    28    29    1
    25    30    29    1
    26    30    31    1
    27    31    32    1
    28    33    32    1
    29    33    34    1
    30    23    26    1
    31    26    27    1
    32     5     6    1
    33     6     7    1
    34    16     8   ar
    35     7     1    1
    36    15    11   ar
    37    27    20    1
    38    33    28    1
    39    34    30    1
@<TRIPOS>MOLECULE
*****
 34 39 0 0 0
SMALL
GASTEIGER

@<TRIPOS>ATOM
      1 N         140.3031  139.6546  164.6090 N.pl3   1  UNL1       -0.3039
      2 C         140.8353  138.2830  164.3163 C.3     1  UNL1        0.0923
      3 C         140.9846  137.6017  162.9883 C.3     1  UNL1        0.0387
      4 C         140.6386  138.1235  161.6252 C.3     1  UNL1        0.0739
      5 N         140.0580  139.4555  161.2534 N.3     1  UNL1       -0.2712
      6 C         139.6797  140.5948  162.1528 C.3     1  UNL1        0.0938
      7 C         139.7888  140.6835  163.6462 C.3     1  UNL1        0.1081
      8 C         139.1810  139.5631  166.9505 C.ar    1  UNL1       -0.0044
      9 C         139.1603  139.9580  168.3973 C.ar    1  UNL1        0.0161
     10 C         140.2412  140.8393  168.9499 C.ar    1  UNL1        0.0812
     11 N         141.3426  141.3256  168.0553 N.ar    1  UNL1       -0.2865
     12 C         142.5345  142.1986  168.3147 C.ar    1  UNL1        0.1022
     13 C         143.2918  142.3433  167.0280 C.ar    1  UNL1        0.1196
     14 N         142.5679  141.5597  165.9734 N.ar    1  UNL1       -0.2236
     15 C         141.3633  140.9308  166.6084 C.ar    1  UNL1        0.1609
     16 C         140.2824  140.0495  166.0560 C.ar    1  UNL1        0.0788
     17 C         137.1853  137.9433  167.3295 C.3     1  UNL1        0.0051
     18 C         138.1001  138.6818  166.3980 C.3     1  UNL1        0.0278
     19 C         139.8246  139.6777  159.7884 C.3     1  UNL1        0.0722
     20 C         140.7370  139.0459  158.7792 C.3     1  UNL1        0.0194
     21 C         140.2351  137.9333  157.9073 C.3     1  UNL1        0.0229
     22 C         141.1474  137.3016  156.8981 C.3     1  UNL1        0.0934
     23 N         142.5616  137.7824  156.7608 N.am    1  UNL1       -0.2795
     24 C         143.4739  137.1506  155.7516 C.2     1  UNL1        0.2276
     25 O         144.8881  137.6314  155.6143 O.2     1  UNL1       -0.2748
     26 C         143.0634  138.8950  157.6327 C.3     1  UNL1        0.0934
     27 C         142.1511  139.5268  158.6419 C.3     1  UNL1        0.0229
     28 C         142.9721  136.0380  154.8797 C.3     1  UNL1        0.1062
     29 C         142.2397  136.1978  153.5804 C.3     1  UNL1        0.0411
     30 C         141.9295  134.8288  153.0518 C.3     1  UNL1        0.1158
     31 C         142.0718  133.3610  153.3260 C.3     1  UNL1        0.0321
     32 C         142.8042  133.2012  154.6253 C.3     1  UNL1        0.0325
     33 C         143.1144  134.5702  155.1540 C.3     1  UNL1        0.1238
     34 O         142.5738  135.5761  154.1814 O.3     1  UNL1       -0.3582
@<TRIPOS>BOND
     1    17    18    1
     2    18     8    1
     3     8     9   ar
     4     9    10   ar
     5    10    11   ar
     6    11    12   ar
     7    12    13   ar
     8    13    14   ar
     9    14    15   ar
    10    15    16   ar
    11    16     1    1
    12     1     2    1
    13     2     3    1
    14     3     4    1
    15     4     5    1
    16     5    19    1
    17    19    20    1
    18    20    21    1
    19    21    22    1
    20    22    23    1
    21    23    24   am
    22    24    25    2
    23    28    24    1
    24    28    29    1
    25    30    29    1
    26    30    31    1
    27    31    32    1
    28    33    32    1
    29    33    34    1
    30    23    26    1
    31    26    27    1
    32     5     6    1
    33     6     7    1
    34    16     8   ar
    35     7     1    1
    36    15    11   ar
    37    27    20    1
    38    33    28    1
    39    34    30    1
@<TRIPOS>MOLECULE
*****
 34 39 0 0 0
SMALL
GASTEIGER

@<TRIPOS>ATOM
      1 N         142.8429  139.7393  160.0504 N.pl3   1  UNL1       -0.3039
      2 C         143.7064  138.8401  160.8847 C.3     1  UNL1        0.0923
      3 C         143.3193  138.0115  162.0737 C.3     1  UNL1        0.0387
      4 C         141.9732  137.8774  162.7219 C.3     1  UNL1        0.0739
      5 N         140.6819  138.5387  162.3414 N.3     1  UNL1       -0.2712
      6 C         140.4175  139.4976  161.2185 C.3     1  UNL1        0.0938
      7 C         141.3792  140.0319  160.1989 C.3     1  UNL1        0.1081
      8 C         144.0601  141.8307  159.1047 C.ar    1  UNL1       -0.0044
      9 C         144.7518  142.5297  157.9721 C.ar    1  UNL1        0.0161
     10 C         144.9181  141.8362  156.6524 C.ar    1  UNL1        0.0812
     11 N         144.3927  140.4437  156.4654 N.ar    1  UNL1       -0.2865
     12 C         144.4093  139.5144  155.2881 C.ar    1  UNL1        0.1022
     13 C         143.7278  138.2410  155.6932 C.ar    1  UNL1        0.1196
     14 N         143.2900  138.3834  157.1208 N.ar    1  UNL1       -0.2236
     15 C         143.7009  139.7448  157.5981 C.ar    1  UNL1        0.1609
     16 C         143.5346  140.4383  158.9177 C.ar    1  UNL1        0.0788
     17 C         144.9509  142.3908  161.4801 C.3     1  UNL1        0.0051
     18 C         143.8937  142.5242  160.4244 C.3     1  UNL1        0.0278
     19 C         139.4983  138.1959  163.1967 C.3     1  UNL1        0.0722
     20 C         139.4398  138.6665  164.6199 C.3     1  UNL1        0.0194
     21 C         140.5089  139.5727  165.1546 C.3     1  UNL1        0.0229
     22 C         140.4505  140.0433  166.5776 C.3     1  UNL1        0.0934
     23 N         139.3230  139.6078  167.4659 N.am    1  UNL1       -0.2795
     24 C         139.2644  140.0784  168.8890 C.2     1  UNL1        0.2276
     25 O         138.1369  139.6429  169.7773 O.2     1  UNL1       -0.2748
     26 C         138.2539  138.7017  166.9311 C.3     1  UNL1        0.0934
     27 C         138.3123  138.2310  165.5081 C.3     1  UNL1        0.0229
     28 C         140.3335  140.9845  169.4238 C.3     1  UNL1        0.1062
     29 C         141.6314  140.5504  170.0377 C.3     1  UNL1        0.0411
     30 C         142.3924  141.7814  170.4319 C.3     1  UNL1        0.1158
     31 C         142.3513  143.2807  170.4466 C.3     1  UNL1        0.0321
     32 C         141.0535  143.7149  169.8326 C.3     1  UNL1        0.0325
     33 C         140.2924  142.4838  169.4385 C.3     1  UNL1        0.1238
     34 O         141.1200  141.2889  169.8089 O.3     1  UNL1       -0.3582
@<TRIPOS>BOND
     1    17    18    1
     2    18     8    1
     3     8     9   ar
     4     9    10   ar
     5    10    11   ar
     6    11    12   ar
     7    12    13   ar
     8    13    14   ar
     9    14    15   ar
    10    15    16   ar
    11    16     1    1
    12     1     2    1
    13     2     3    1
    14     3     4    1
    15     4     5    1
    16     5    19    1
    17    19    20    1
    18    20    21    1
    19    21    22    1
    20    22    23    1
    21    23    24   am
    22    24    25    2
    23    28    24    1
    24    28    29    1
    25    30    29    1
    26    30    31    1
    27    31    32    1
    28    33    32    1
    29    33    34    1
    30    23    26    1
    31    26    27    1
    32     5     6    1
    33     6     7    1
    34    16     8   ar
    35     7     1    1
    36    15    11   ar
    37    27    20    1
    38    33    28    1
    39    34    30    1
@<TRIPOS>MOLECULE
*****
 34 39 0 0 0
SMALL
GASTEIGER

@<TRIPOS>ATOM
      1 N         138.5031  140.5863  158.7336 N.pl3   1  UNL1       -0.3039
      2 C         139.6121  139.6496  158.3557 C.3     1  UNL1        0.0923
      3 C         140.1896  138.5155  159.1496 C.3     1  UNL1        0.0387
      4 C         139.8008  138.0380  160.5175 C.3     1  UNL1        0.0739
      5 N         138.7385  138.5766  161.4291 N.3     1  UNL1       -0.2712
      6 C         137.8025  139.7259  161.1982 C.3     1  UNL1        0.0938
      7 C         137.6977  140.6203  159.9986 C.3     1  UNL1        0.1081
      8 C         138.9707  142.8799  157.6062 C.ar    1  UNL1       -0.0044
      9 C         138.6208  143.9201  156.5839 C.ar    1  UNL1        0.0161
     10 C         137.4534  143.7072  155.6663 C.ar    1  UNL1        0.0812
     11 N         136.6358  142.4540  155.7713 N.ar    1  UNL1       -0.2865
     12 C         135.4378  141.9705  155.0091 C.ar    1  UNL1        0.1022
     13 C         135.0472  140.6313  155.5606 C.ar    1  UNL1        0.1196
     14 N         136.0039  140.2872  156.6635 N.ar    1  UNL1       -0.2236
     15 C         136.9857  141.4137  156.7937 C.ar    1  UNL1        0.1609
     16 C         138.1532  141.6266  157.7112 C.ar    1  UNL1        0.0788
     17 C         140.0046  144.0029  159.7085 C.3     1  UNL1        0.0051
     18 C         140.1382  143.0927  158.5238 C.3     1  UNL1        0.0278
     19 C         138.5928  137.8731  162.7458 C.3     1  UNL1        0.0722
     20 C         139.3822  138.3354  163.9347 C.3     1  UNL1        0.0194
     21 C         138.7467  139.2347  164.9532 C.3     1  UNL1        0.0229
     22 C         139.5360  139.6970  166.1420 C.3     1  UNL1        0.0934
     23 N         140.9607  139.2599  166.3123 N.am    1  UNL1       -0.2795
     24 C         141.7501  139.7221  167.5011 C.2     1  UNL1        0.2276
     25 O         143.1749  139.2851  167.6714 O.2     1  UNL1       -0.2748
     26 C         141.5962  138.3606  165.2938 C.3     1  UNL1        0.0934
     27 C         140.8069  137.8983  164.1049 C.3     1  UNL1        0.0229
     28 C         141.1147  140.6215  168.5196 C.3     1  UNL1        0.1062
     29 C         140.4524  140.1830  169.7920 C.3     1  UNL1        0.0411
     30 C         139.9583  141.4077  170.5033 C.3     1  UNL1        0.1158
     31 C         139.8736  142.9034  170.4283 C.3     1  UNL1        0.0321
     32 C         140.5358  143.3419  169.1559 C.3     1  UNL1        0.0325
     33 C         141.0299  142.1172  168.4446 C.3     1  UNL1        0.1238
     34 O         140.6729  140.9218  169.2774 O.3     1  UNL1       -0.3582
@<TRIPOS>BOND
     1    17    18    1
     2    18     8    1
     3     8     9   ar
     4     9    10   ar
     5    10    11   ar
     6    11    12   ar
     7    12    13   ar
     8    13    14   ar
     9    14    15   ar
    10    15    16   ar
    11    16     1    1
    12     1     2    1
    13     2     3    1
    14     3     4    1
    15     4     5    1
    16     5    19    1
    17    19    20    1
    18    20    21    1
    19    21    22    1
    20    22    23    1
    21    23    24   am
    22    24    25    2
    23    28    24    1
    24    28    29    1
    25    30    29    1
    26    30    31    1
    27    31    32    1
    28    33    32    1
    29    33    34    1
    30    23    26    1
    31    26    27    1
    32     5     6    1
    33     6     7    1
    34    16     8   ar
    35     7     1    1
    36    15    11   ar
    37    27    20    1
    38    33    28    1
    39    34    30    1
@<TRIPOS>MOLECULE
*****
 34 39 0 0 0
SMALL
GASTEIGER

@<TRIPOS>ATOM
      1 N         139.9392  140.7709  163.5103 N.pl3   1  UNL1       -0.3039
      2 C         138.7804  139.8198  163.4590 C.3     1  UNL1        0.0923
      3 C         138.1040  139.2338  162.2552 C.3     1  UNL1        0.0387
      4 C         138.4194  139.4543  160.8053 C.3     1  UNL1        0.0739
      5 N         139.4889  140.3150  160.2013 N.3     1  UNL1       -0.2712
      6 C         140.5074  141.1680  160.8979 C.3     1  UNL1        0.0938
      7 C         140.7078  141.3709  162.3704 C.3     1  UNL1        0.1081
      8 C         139.8539  142.4296  165.5081 C.ar    1  UNL1       -0.0044
      9 C         140.3035  142.8341  166.8807 C.ar    1  UNL1        0.0161
     10 C         141.2881  141.9845  167.6283 C.ar    1  UNL1        0.0812
     11 N         141.8230  140.7303  167.0031 N.ar    1  UNL1       -0.2865
     12 C         142.7963  139.7002  167.4945 C.ar    1  UNL1        0.1022
     13 C         142.9482  138.6590  166.4254 C.ar    1  UNL1        0.1196
     14 N         142.0688  139.0456  165.2734 N.ar    1  UNL1       -0.2236
     15 C         141.3734  140.3258  165.6304 C.ar    1  UNL1        0.1609
     16 C         140.3888  141.1754  164.8829 C.ar    1  UNL1        0.0788
     17 C         138.7663  144.7458  165.0582 C.3     1  UNL1        0.0051
     18 C         138.8693  143.2792  164.7606 C.3     1  UNL1        0.0278
     19 C         139.5480  140.3240  158.7025 C.3     1  UNL1        0.0722
     20 C         140.5837  139.5077  157.9876 C.3     1  UNL1        0.0194
     21 C         140.2892  138.0861  157.6107 C.3     1  UNL1        0.0229
     22 C         141.3248  137.2698  156.8959 C.3     1  UNL1        0.0934
     23 N         142.6550  137.8751  156.5580 N.am    1  UNL1       -0.2795
     24 C         143.6908  137.0588  155.8432 C.2     1  UNL1        0.2276
     25 O         145.0210  137.6641  155.5054 O.2     1  UNL1       -0.2748
     26 C         142.9496  139.2967  156.9350 C.3     1  UNL1        0.0934
     27 C         141.9139  140.1131  157.6498 C.3     1  UNL1        0.0229
     28 C         143.3963  135.6372  155.4662 C.3     1  UNL1        0.1062
     29 C         143.7584  134.4201  156.2647 C.3     1  UNL1        0.0411
     30 C         143.2739  133.2137  155.5166 C.3     1  UNL1        0.1158
     31 C         142.5655  132.7595  154.2749 C.3     1  UNL1        0.0321
     32 C         142.2033  133.9765  153.4764 C.3     1  UNL1        0.0325
     33 C         142.6879  135.1829  154.2246 C.3     1  UNL1        0.1238
     34 O         143.3495  134.7114  155.4854 O.3     1  UNL1       -0.3582
@<TRIPOS>BOND
     1    17    18    1
     2    18     8    1
     3     8     9   ar
     4     9    10   ar
     5    10    11   ar
     6    11    12   ar
     7    12    13   ar
     8    13    14   ar
     9    14    15   ar
    10    15    16   ar
    11    16     1    1
    12     1     2    1
    13     2     3    1
    14     3     4    1
    15     4     5    1
    16     5    19    1
    17    19    20    1
    18    20    21    1
    19    21    22    1
    20    22    23    1
    21    23    24   am
    22    24    25    2
    23    28    24    1
    24    28    29    1
    25    30    29    1
    26    30    31    1
    27    31    32    1
    28    33    32    1
    29    33    34    1
    30    23    26    1
    31    26    27    1
    32     5     6    1
    33     6     7    1
    34    16     8   ar
    35     7     1    1
    36    15    11   ar
    37    27    20    1
    38    33    28    1
    39    34    30    1
@<TRIPOS>MOLECULE
*****
 34 39 0 0 0
SMALL
GASTEIGER

@<TRIPOS>ATOM
      1 N         141.0379  139.9202  166.0479 N.pl3   1  UNL1       -0.3039
      2 C         141.7404  138.6344  165.7266 C.3     1  UNL1        0.0923
      3 C         141.3977  137.6183  164.6778 C.3     1  UNL1        0.0387
      4 C         140.2679  137.6370  163.6912 C.3     1  UNL1        0.0739
      5 N         139.2018  138.6764  163.5098 N.3     1  UNL1       -0.2712
      6 C         139.0022  139.9539  164.2703 C.3     1  UNL1        0.0938
      7 C         139.8193  140.5075  165.3998 C.3     1  UNL1        0.1081
      8 C         142.7840  141.6479  166.8943 C.ar    1  UNL1       -0.0044
      9 C         143.3788  142.4529  168.0114 C.ar    1  UNL1        0.0161
     10 C         142.8225  142.3352  169.3995 C.ar    1  UNL1        0.0812
     11 N         141.6713  141.4125  169.6703 N.ar    1  UNL1       -0.2865
     12 C         140.9176  141.0900  170.9264 C.ar    1  UNL1        0.1022
     13 C         139.8569  140.0857  170.5856 C.ar    1  UNL1        0.1196
     14 N         139.9551  139.7875  169.1188 N.ar    1  UNL1       -0.2236
     15 C         141.0765  140.6075  168.5531 C.ar    1  UNL1        0.1609
     16 C         141.6328  140.7252  167.1651 C.ar    1  UNL1        0.0788
     17 C         144.1504  142.9682  165.1224 C.3     1  UNL1        0.0051
     18 C         143.3403  141.7656  165.5061 C.3     1  UNL1        0.0278
     19 C         138.2033  138.4021  162.4246 C.3     1  UNL1        0.0722
     20 C         138.4673  138.8745  161.0256 C.3     1  UNL1        0.0194
     21 C         137.6873  140.0257  160.4630 C.3     1  UNL1        0.0229
     22 C         137.9512  140.4980  159.0640 C.3     1  UNL1        0.0934
     23 N         138.9951  139.8193  158.2276 N.am    1  UNL1       -0.2795
     24 C         139.2591  140.2917  156.8286 C.2     1  UNL1        0.2276
     25 O         140.3030  139.6130  155.9922 O.2     1  UNL1       -0.2748
     26 C         139.7751  138.6682  158.7902 C.3     1  UNL1        0.0934
     27 C         139.5112  138.1958  160.1892 C.3     1  UNL1        0.0229
     28 C         138.4791  141.4428  156.2660 C.3     1  UNL1        0.1062
     29 C         137.1195  141.3633  155.6375 C.3     1  UNL1        0.0411
     30 C         136.7219  142.7469  155.2162 C.3     1  UNL1        0.1158
     31 C         137.1646  144.1797  155.1834 C.3     1  UNL1        0.0321
     32 C         138.5242  144.2593  155.8120 C.3     1  UNL1        0.0325
     33 C         138.9218  142.8756  156.2332 C.3     1  UNL1        0.1238
     34 O         137.8079  141.9410  155.8650 O.3     1  UNL1       -0.3582
@<TRIPOS>BOND
     1    17    18    1
     2    18     8    1
     3     8     9   ar
     4     9    10   ar
     5    10    11   ar
     6    11    12   ar
     7    12    13   ar
     8    13    14   ar
     9    14    15   ar
    10    15    16   ar
    11    16     1    1
    12     1     2    1
    13     2     3    1
    14     3     4    1
    15     4     5    1
    16     5    19    1
    17    19    20    1
    18    20    21    1
    19    21    22    1
    20    22    23    1
    21    23    24   am
    22    24    25    2
    23    28    24    1
    24    28    29    1
    25    30    29    1
    26    30    31    1
    27    31    32    1
    28    33    32    1
    29    33    34    1
    30    23    26    1
    31    26    27    1
    32     5     6    1
    33     6     7    1
    34    16     8   ar
    35     7     1    1
    36    15    11   ar
    37    27    20    1
    38    33    28    1
    39    34    30    1
@<TRIPOS>MOLECULE
*****
 34 39 0 0 0
SMALL
GASTEIGER

@<TRIPOS>ATOM
      1 N         141.5473  141.3312  166.1338 N.pl3   1  UNL1       -0.3039
      2 C         140.8926  142.4042  165.3151 C.3     1  UNL1        0.0923
      3 C         141.2922  142.9269  163.9672 C.3     1  UNL1        0.0387
      4 C         142.4452  142.5058  163.1049 C.3     1  UNL1        0.0739
      5 N         143.4832  141.4580  163.3777 N.3     1  UNL1       -0.2712
      6 C         143.6247  140.5724  164.5801 C.3     1  UNL1        0.0938
      7 C         142.7632  140.5159  165.8066 C.3     1  UNL1        0.1081
      8 C         139.6726  140.1744  167.5112 C.ar    1  UNL1       -0.0044
      9 C         139.0258  139.8774  168.8315 C.ar    1  UNL1        0.0161
     10 C         139.6067  140.4400  170.0949 C.ar    1  UNL1        0.0812
     11 N         140.8346  141.2998  170.0378 N.ar    1  UNL1       -0.2865
     12 C         141.6279  141.9890  171.1081 C.ar    1  UNL1        0.1022
     13 C         142.7650  142.7120  170.4492 C.ar    1  UNL1        0.1196
     14 N         142.6745  142.4696  168.9717 N.ar    1  UNL1       -0.2236
     15 C         141.4814  141.5968  168.7174 C.ar    1  UNL1        0.1609
     16 C         140.9004  141.0341  167.4541 C.ar    1  UNL1        0.0788
     17 C         138.0988  138.4893  166.3140 C.3     1  UNL1        0.0051
     18 C         139.0916  139.6117  166.2479 C.3     1  UNL1        0.0278
     19 C         144.5164  141.2710  162.3064 C.3     1  UNL1        0.0722
     20 C         144.0990  140.8614  160.9250 C.3     1  UNL1        0.0194
     21 C         143.8498  139.4151  160.6148 C.3     1  UNL1        0.0229
     22 C         143.4324  139.0055  159.2335 C.3     1  UNL1        0.0934
     23 N         143.2643  140.0421  158.1625 N.am    1  UNL1       -0.2795
     24 C         142.8470  139.6326  156.7812 C.2     1  UNL1        0.2276
     25 O         142.6788  140.6692  155.7101 O.2     1  UNL1       -0.2748
     26 C         143.5135  141.4884  158.4727 C.3     1  UNL1        0.0934
     27 C         143.9309  141.8980  159.8541 C.3     1  UNL1        0.0229
     28 C         142.5977  138.1864  156.4709 C.3     1  UNL1        0.1062
     29 C         141.2843  137.4721  156.5925 C.3     1  UNL1        0.0411
     30 C         141.4930  136.0448  156.1813 C.3     1  UNL1        0.1158
     31 C         142.5134  135.0588  155.6950 C.3     1  UNL1        0.0321
     32 C         143.8269  135.7730  155.5734 C.3     1  UNL1        0.0325
     33 C         143.6182  137.2004  155.9846 C.3     1  UNL1        0.1238
     34 O         142.1758  137.3683  156.3603 O.3     1  UNL1       -0.3582
@<TRIPOS>BOND
     1    17    18    1
     2    18     8    1
     3     8     9   ar
     4     9    10   ar
     5    10    11   ar
     6    11    12   ar
     7    12    13   ar
     8    13    14   ar
     9    14    15   ar
    10    15    16   ar
    11    16     1    1
    12     1     2    1
    13     2     3    1
    14     3     4    1
    15     4     5    1
    16     5    19    1
    17    19    20    1
    18    20    21    1
    19    21    22    1
    20    22    23    1
    21    23    24   am
    22    24    25    2
    23    28    24    1
    24    28    29    1
    25    30    29    1
    26    30    31    1
    27    31    32    1
    28    33    32    1
    29    33    34    1
    30    23    26    1
    31    26    27    1
    32     5     6    1
    33     6     7    1
    34    16     8   ar
    35     7     1    1
    36    15    11   ar
    37    27    20    1
    38    33    28    1
    39    34    30    1
@<TRIPOS>MOLECULE
*****
 34 39 0 0 0
SMALL
GASTEIGER

@<TRIPOS>ATOM
      1 N         140.0649  141.4156  163.0616 N.pl3   1  UNL1       -0.3039
      2 C         139.1488  142.5475  162.7016 C.3     1  UNL1        0.0923
      3 C         138.4588  142.8134  161.3966 C.3     1  UNL1        0.0387
      4 C         138.5145  142.0130  160.1291 C.3     1  UNL1        0.0739
      5 N         139.2739  140.7492  159.8537 N.3     1  UNL1       -0.2712
      6 C         140.1652  139.9734  160.7778 C.3     1  UNL1        0.0938
      7 C         140.5173  140.2700  162.2054 C.3     1  UNL1        0.1081
      8 C         139.8122  140.8002  165.5730 C.ar    1  UNL1       -0.0044
      9 C         140.3466  140.8159  166.9744 C.ar    1  UNL1        0.0161
     10 C         141.6682  141.4629  167.2661 C.ar    1  UNL1        0.0812
     11 N         142.4553  142.0941  166.1561 N.ar    1  UNL1       -0.2865
     12 C         143.7782  142.8008  166.1398 C.ar    1  UNL1        0.1022
     13 C         144.0615  143.2218  164.7283 C.ar    1  UNL1        0.1196
     14 N         142.9136  142.7753  163.8721 N.ar    1  UNL1       -0.2236
     15 C         141.9208  142.0783  164.7546 C.ar    1  UNL1        0.1609
     16 C         140.5993  141.4314  164.4631 C.ar    1  UNL1        0.0788
     17 C         138.0087  139.0156  166.1321 C.3     1  UNL1        0.0051
     18 C         138.4907  140.1532  165.2814 C.3     1  UNL1        0.0278
     19 C         139.1219  140.1865  158.4716 C.3     1  UNL1        0.0722
     20 C         140.2426  139.4049  157.8525 C.3     1  UNL1        0.0194
     21 C         140.0589  137.9493  157.5405 C.3     1  UNL1        0.0229
     22 C         141.1794  137.1677  156.9215 C.3     1  UNL1        0.0934
     23 N         142.4838  137.8417  156.6143 N.am    1  UNL1       -0.2795
     24 C         143.6045  137.0601  155.9952 C.2     1  UNL1        0.2276
     25 O         144.9088  137.7341  155.6881 O.2     1  UNL1       -0.2748
     26 C         142.6675  139.2973  156.9263 C.3     1  UNL1        0.0934
     27 C         141.5469  140.0790  157.5454 C.3     1  UNL1        0.0229
     28 C         143.4207  135.6045  155.6833 C.3     1  UNL1        0.1062
     29 C         142.8730  135.0386  154.4067 C.3     1  UNL1        0.0411
     30 C         142.8662  133.5436  154.5276 C.3     1  UNL1        0.1158
     31 C         143.1979  132.3982  155.4375 C.3     1  UNL1        0.0321
     32 C         143.7456  132.9639  156.7141 C.3     1  UNL1        0.0325
     33 C         143.7524  134.4591  156.5932 C.3     1  UNL1        0.1238
     34 O         143.2089  134.8172  155.2418 O.3     1  UNL1       -0.3582
@<TRIPOS>BOND
     1    17    18    1
     2    18     8    1
     3     8     9   ar
     4     9    10   ar
     5    10    11   ar
     6    11    12   ar
     7    12    13   ar
     8    13    14   ar
     9    14    15   ar
    10    15    16   ar
    11    16     1    1
    12     1     2    1
    13     2     3    1
    14     3     4    1
    15     4     5    1
    16     5    19    1
    17    19    20    1
    18    20    21    1
    19    21    22    1
    20    22    23    1
    21    23    24   am
    22    24    25    2
    23    28    24    1
    24    28    29    1
    25    30    29    1
    26    30    31    1
    27    31    32    1
    28    33    32    1
    29    33    34    1
    30    23    26    1
    31    26    27    1
    32     5     6    1
    33     6     7    1
    34    16     8   ar
    35     7     1    1
    36    15    11   ar
    37    27    20    1
    38    33    28    1
    39    34    30    1
@<TRIPOS>MOLECULE
*****
 34 39 0 0 0
SMALL
GASTEIGER

@<TRIPOS>ATOM
      1 N         141.6818  141.9586  166.1790 N.pl3   1  UNL1       -0.3039
      2 C         140.9203  143.0397  165.4707 C.3     1  UNL1        0.0923
      3 C         141.2629  143.7385  164.1884 C.3     1  UNL1        0.0387
      4 C         142.4515  143.5288  163.2976 C.3     1  UNL1        0.0739
      5 N         143.5910  142.5687  163.4692 N.3     1  UNL1       -0.2712
      6 C         143.8234  141.5809  164.5740 C.3     1  UNL1        0.0938
      7 C         142.9738  141.3094  165.7799 C.3     1  UNL1        0.1081
      8 C         139.9062  140.5161  167.4104 C.ar    1  UNL1       -0.0044
      9 C         139.2947  140.0186  168.6865 C.ar    1  UNL1        0.0161
     10 C         139.8474  140.4658  170.0074 C.ar    1  UNL1        0.0812
     11 N         141.0115  141.4107  170.0520 N.ar    1  UNL1       -0.2865
     12 C         141.7651  142.0214  171.1962 C.ar    1  UNL1        0.1022
     13 C         142.8424  142.8964  170.6271 C.ar    1  UNL1        0.1196
     14 N         142.7546  142.8265  169.1313 N.ar    1  UNL1       -0.2236
     15 C         141.6229  141.9083  168.7759 C.ar    1  UNL1        0.1609
     16 C         141.0703  141.4610  167.4551 C.ar    1  UNL1        0.0788
     17 C         138.1353  139.1950  166.0435 C.3     1  UNL1        0.0051
     18 C         139.3536  140.0689  166.0896 C.3     1  UNL1        0.0278
     19 C         144.6363  142.6004  162.3939 C.3     1  UNL1        0.0722
     20 C         144.4125  141.8609  161.1081 C.3     1  UNL1        0.0194
     21 C         144.6140  142.5596  159.7962 C.3     1  UNL1        0.0229
     22 C         144.3902  141.8202  158.5105 C.3     1  UNL1        0.0934
     23 N         143.9649  140.3820  158.5367 N.am    1  UNL1       -0.2795
     24 C         143.7411  139.6426  157.2510 C.2     1  UNL1        0.2276
     25 O         143.3158  138.2044  157.2771 O.2     1  UNL1       -0.2748
     26 C         143.7634  139.6833  159.8486 C.3     1  UNL1        0.0934
     27 C         143.9872  140.4227  161.1344 C.3     1  UNL1        0.0229
     28 C         143.9426  140.3413  155.9391 C.3     1  UNL1        0.1062
     29 C         142.8962  141.0918  155.1699 C.3     1  UNL1        0.0411
     30 C         143.5328  141.6266  153.9215 C.3     1  UNL1        0.1158
     31 C         144.8162  141.6976  153.1484 C.3     1  UNL1        0.0321
     32 C         145.8627  140.9472  153.9175 C.3     1  UNL1        0.0325
     33 C         145.2261  140.4123  155.1659 C.3     1  UNL1        0.1238
     34 O         143.7861  140.8323  155.1683 O.3     1  UNL1       -0.3582
@<TRIPOS>BOND
     1    17    18    1
     2    18     8    1
     3     8     9   ar
     4     9    10   ar
     5    10    11   ar
     6    11    12   ar
     7    12    13   ar
     8    13    14   ar
     9    14    15   ar
    10    15    16   ar
    11    16     1    1
    12     1     2    1
    13     2     3    1
    14     3     4    1
    15     4     5    1
    16     5    19    1
    17    19    20    1
    18    20    21    1
    19    21    22    1
    20    22    23    1
    21    23    24   am
    22    24    25    2
    23    28    24    1
    24    28    29    1
    25    30    29    1
    26    30    31    1
    27    31    32    1
    28    33    32    1
    29    33    34    1
    30    23    26    1
    31    26    27    1
    32     5     6    1
    33     6     7    1
    34    16     8   ar
    35     7     1    1
    36    15    11   ar
    37    27    20    1
    38    33    28    1
    39    34    30    1
