@<TRIPOS>MOLECULE
*****
 36 39 0 0 0
SMALL
GASTEIGER

@<TRIPOS>ATOM
      1 C         139.5462  139.2432  165.6096 C.ar    1  UNL1       -0.0223
      2 C         138.8770  138.5485  164.4610 C.ar    1  UNL1       -0.0030
      3 C         139.5275  138.5369  163.1095 C.ar    1  UNL1        0.0143
      4 C         140.8474  139.2201  162.9066 C.ar    1  UNL1        0.0502
      5 C         141.5166  139.9149  164.0552 C.ar    1  UNL1        0.0089
      6 C         140.8660  139.9264  165.4067 C.ar    1  UNL1       -0.0034
      7 N         137.5944  139.2779  169.6642 N.3     1  UNL1       -0.2712
      8 C         138.8398  140.0789  169.4244 C.3     1  UNL1        0.0725
      9 C         139.4903  140.0674  168.0729 C.3     1  UNL1        0.0217
     10 C         138.8956  139.2548  166.9611 C.3     1  UNL1        0.0251
     11 C         137.6503  138.4538  167.2009 C.3     1  UNL1        0.0217
     12 C         136.9997  138.4654  168.5525 C.3     1  UNL1        0.0725
     13 C         136.9438  139.2895  171.0157 C.3     1  UNL1        0.0977
     14 C         135.8499  138.3125  171.3299 C.3     1  UNL1        0.1681
     15 C         136.0708  136.5364  173.7374 C.3     1  UNL1        0.1761
     16 S         135.9603  137.4245  172.5337 S.O2    1  UNL1       -0.0068
     17 O         136.7050  136.4102  171.7171 O.2     1  UNL1       -0.1729
     18 O         135.2157  138.4387  173.3502 O.2     1  UNL1       -0.1729
     19 C         142.8365  140.5981  163.8523 C.2     1  UNL1       -0.0253
     20 C         144.1134  139.8554  164.1130 C.2     1  UNL1       -0.0303
     21 C         145.4333  140.5386  163.9101 C.3     1  UNL1        0.0257
     22 C         145.4763  141.9646  163.4466 C.3     1  UNL1        0.0050
     23 C         144.1994  142.7073  163.1859 C.3     1  UNL1        0.0050
     24 C         142.8795  142.0241  163.3888 C.3     1  UNL1        0.0261
     25 N         141.4980  139.2085  161.5551 N.am    1  UNL1       -0.2779
     26 C         141.1431  140.2570  160.5429 C.2     1  UNL1        0.2837
     27 O         140.1375  141.3172  160.8822 O.2     1  UNL1       -0.2665
     28 H         142.1579  138.5127  161.3324 H       1  UNL1        0.1553
     29 C         141.7937  140.2455  159.1914 C.ar    1  UNL1        0.1959
     30 N         142.6761  139.1616  158.6469 N.ar    1  UNL1       -0.2123
     31 C         143.1039  139.5620  157.2660 C.ar    1  UNL1        0.1678
     32 C         142.4858  140.8934  156.9571 C.ar    1  UNL1        0.1036
     33 N         141.6760  141.3158  158.1470 N.ar    1  UNL1       -0.3319
     34 H         141.1582  142.1492  158.2282 H       1  UNL1        0.1676
     35 C         143.9935  138.7701  156.3542 C.1     1  UNL1        0.1214
     36 N         144.8831  137.9782  155.4424 N.1     1  UNL1       -0.1892
@<TRIPOS>BOND
     1    15    16    1
     2    16    17    2
     3    16    18    2
     4    16    14    1
     5    14    13    1
     6    13     7    1
     7     7     8    1
     8     8     9    1
     9     9    10    1
    10    10     1    1
    11     1     2   ar
    12     2     3   ar
    13     3     4   ar
    14     4    25    1
    15    25    26   am
    16    26    27    2
    17    26    29    1
    18    29    30   ar
    19    30    31   ar
    20    31    35    1
    21    35    36    3
    22    31    32   ar
    23    32    33   ar
    24     4     5   ar
    25     5    19    1
    26    19    20    2
    27    20    21    1
    28    21    22    1
    29    22    23    1
    30    23    24    1
    31     5     6   ar
    32    10    11    1
    33    11    12    1
    34    12     7    1
    35     6     1   ar
    36    33    29   ar
    37    24    19    1
    38    25    28    1
    39    33    34    1
@<TRIPOS>MOLECULE
*****
 36 39 0 0 0
SMALL
GASTEIGER

@<TRIPOS>ATOM
      1 C         139.9624  139.8277  166.0024 C.ar    1  UNL1       -0.0223
      2 C         140.0187  138.7117  165.0017 C.ar    1  UNL1       -0.0030
      3 C         140.7946  138.8835  163.7295 C.ar    1  UNL1        0.0143
      4 C         141.5141  140.1713  163.4580 C.ar    1  UNL1        0.0502
      5 C         141.4578  141.2872  164.4586 C.ar    1  UNL1        0.0089
      6 C         140.6820  141.1155  165.7308 C.ar    1  UNL1       -0.0034
      7 N         137.6349  139.3123  169.8191 N.3     1  UNL1       -0.2712
      8 C         137.2063  138.5906  168.5759 C.3     1  UNL1        0.0725
      9 C         137.9821  138.7624  167.3037 C.3     1  UNL1        0.0217
     10 C         139.1866  139.6559  167.2746 C.3     1  UNL1        0.0251
     11 C         139.6152  140.3776  168.5177 C.3     1  UNL1        0.0217
     12 C         138.8393  140.2058  169.7900 C.3     1  UNL1        0.0725
     13 C         136.8590  139.1405  171.0913 C.3     1  UNL1        0.0977
     14 C         135.9369  137.9689  171.2550 C.3     1  UNL1        0.1681
     15 C         136.0445  136.3129  173.7542 C.3     1  UNL1        0.1761
     16 S         135.9907  137.1409  172.5046 S.O2    1  UNL1       -0.0068
     17 O         134.8212  137.8999  173.0579 O.2     1  UNL1       -0.1729
     18 O         137.1602  136.3818  171.9512 O.2     1  UNL1       -0.1729
     19 C         142.1774  142.5751  164.1871 C.2     1  UNL1       -0.0253
     20 C         143.5046  142.8433  164.8327 C.2     1  UNL1       -0.0303
     21 C         144.2242  144.1310  164.5612 C.3     1  UNL1        0.0257
     22 C         143.6166  145.1508  163.6440 C.3     1  UNL1        0.0050
     23 C         142.2895  144.8826  162.9984 C.3     1  UNL1        0.0050
     24 C         141.5699  143.5948  163.2699 C.3     1  UNL1        0.0261
     25 N         142.2900  140.3431  162.1857 N.am    1  UNL1       -0.2779
     26 C         141.5715  140.6449  160.9041 C.2     1  UNL1        0.2837
     27 O         140.0772  140.7750  160.8946 O.2     1  UNL1       -0.2665
     28 H         143.2707  140.2577  162.1919 H       1  UNL1        0.1553
     29 C         142.3474  140.8167  159.6319 C.ar    1  UNL1        0.1959
     30 N         143.7098  141.4317  159.5062 N.ar    1  UNL1       -0.2123
     31 C         144.1015  141.3987  158.0586 C.ar    1  UNL1        0.1678
     32 C         142.9812  140.7634  157.2896 C.ar    1  UNL1        0.1036
     33 N         141.8970  140.4037  158.2619 N.ar    1  UNL1       -0.3319
     34 H         141.0404  139.9723  158.0399 H       1  UNL1        0.1676
     35 C         145.3876  141.9111  157.4813 C.1     1  UNL1        0.1214
     36 N         146.6737  142.4235  156.9040 N.1     1  UNL1       -0.1892
@<TRIPOS>BOND
     1    15    16    1
     2    16    17    2
     3    16    18    2
     4    16    14    1
     5    14    13    1
     6    13     7    1
     7     7     8    1
     8     8     9    1
     9     9    10    1
    10    10     1    1
    11     1     2   ar
    12     2     3   ar
    13     3     4   ar
    14     4    25    1
    15    25    26   am
    16    26    27    2
    17    26    29    1
    18    29    30   ar
    19    30    31   ar
    20    31    35    1
    21    35    36    3
    22    31    32   ar
    23    32    33   ar
    24     4     5   ar
    25     5    19    1
    26    19    20    2
    27    20    21    1
    28    21    22    1
    29    22    23    1
    30    23    24    1
    31     5     6   ar
    32    10    11    1
    33    11    12    1
    34    12     7    1
    35     6     1   ar
    36    33    29   ar
    37    24    19    1
    38    25    28    1
    39    33    34    1
@<TRIPOS>MOLECULE
*****
 36 39 0 0 0
SMALL
GASTEIGER

@<TRIPOS>ATOM
      1 C         142.7198  139.8045  165.4634 C.ar    1  UNL1       -0.0223
      2 C         143.6126  139.5495  164.2854 C.ar    1  UNL1       -0.0030
      3 C         143.3445  140.2355  162.9787 C.ar    1  UNL1        0.0143
      4 C         142.1836  141.1766  162.8500 C.ar    1  UNL1        0.0502
      5 C         141.2909  141.4317  164.0280 C.ar    1  UNL1        0.0089
      6 C         141.5589  140.7457  165.3347 C.ar    1  UNL1       -0.0034
      7 N         143.5240  137.7464  169.3835 N.3     1  UNL1       -0.2712
      8 C         142.6253  138.9464  169.3370 C.3     1  UNL1        0.0725
      9 C         142.3572  139.6325  168.0303 C.3     1  UNL1        0.0217
     10 C         142.9879  139.1185  166.7701 C.3     1  UNL1        0.0251
     11 C         143.8866  137.9185  166.8166 C.3     1  UNL1        0.0217
     12 C         144.1546  137.2324  168.1233 C.3     1  UNL1        0.0725
     13 C         143.7921  137.0603  170.6902 C.3     1  UNL1        0.0977
     14 C         144.8719  136.0236  170.7853 C.3     1  UNL1        0.1681
     15 C         146.6413  135.9183  173.2057 C.3     1  UNL1        0.1761
     16 S         145.7566  135.9710  171.9955 S.O2    1  UNL1       -0.0068
     17 O         144.7244  135.1539  172.7145 O.2     1  UNL1       -0.1729
     18 O         146.7888  136.7881  171.2765 O.2     1  UNL1       -0.1729
     19 C         140.1299  142.3729  163.8994 C.2     1  UNL1       -0.0253
     20 C         138.8387  141.8942  163.3047 C.2     1  UNL1       -0.0303
     21 C         137.6778  142.8353  163.1760 C.3     1  UNL1        0.0257
     22 C         137.8081  144.2552  163.6421 C.3     1  UNL1        0.0050
     23 C         139.0993  144.7339  164.2368 C.3     1  UNL1        0.0050
     24 C         140.2602  143.7927  164.3654 C.3     1  UNL1        0.0261
     25 N         141.9156  141.8627  161.5433 N.am    1  UNL1       -0.2779
     26 C         142.4971  143.2191  161.2752 C.2     1  UNL1        0.2837
     27 O         143.3467  143.8895  162.3138 O.2     1  UNL1       -0.2665
     28 H         141.3579  141.4227  160.8616 H       1  UNL1        0.1553
     29 C         142.2290  143.9052  159.9685 C.ar    1  UNL1        0.1959
     30 N         141.0718  144.8115  159.6696 N.ar    1  UNL1       -0.2123
     31 C         141.1987  145.2719  158.2476 C.ar    1  UNL1        0.1678
     32 C         142.4343  144.6499  157.6676 C.ar    1  UNL1        0.1036
     33 N         143.0712  143.8052  158.7311 N.ar    1  UNL1       -0.3319
     34 H         143.8969  143.2779  158.6341 H       1  UNL1        0.1676
     35 C         140.2556  146.1924  157.5314 C.1     1  UNL1        0.1214
     36 N         139.3125  147.1129  156.8151 N.1     1  UNL1       -0.1892
@<TRIPOS>BOND
     1    15    16    1
     2    16    17    2
     3    16    18    2
     4    16    14    1
     5    14    13    1
     6    13     7    1
     7     7     8    1
     8     8     9    1
     9     9    10    1
    10    10     1    1
    11     1     2   ar
    12     2     3   ar
    13     3     4   ar
    14     4    25    1
    15    25    26   am
    16    26    27    2
    17    26    29    1
    18    29    30   ar
    19    30    31   ar
    20    31    35    1
    21    35    36    3
    22    31    32   ar
    23    32    33   ar
    24     4     5   ar
    25     5    19    1
    26    19    20    2
    27    20    21    1
    28    21    22    1
    29    22    23    1
    30    23    24    1
    31     5     6   ar
    32    10    11    1
    33    11    12    1
    34    12     7    1
    35     6     1   ar
    36    33    29   ar
    37    24    19    1
    38    25    28    1
    39    33    34    1
@<TRIPOS>MOLECULE
*****
 36 39 0 0 0
SMALL
GASTEIGER

@<TRIPOS>ATOM
      1 C         141.3158  138.7699  161.1636 C.ar    1  UNL1       -0.0223
      2 C         140.5862  137.8768  162.1227 C.ar    1  UNL1       -0.0030
      3 C         140.5493  138.2160  163.5834 C.ar    1  UNL1        0.0143
      4 C         141.2421  139.4482  164.0850 C.ar    1  UNL1        0.0502
      5 C         141.9717  140.3413  163.1258 C.ar    1  UNL1        0.0089
      6 C         142.0086  140.0021  161.6651 C.ar    1  UNL1       -0.0034
      7 N         141.4264  137.7524  156.7815 N.3     1  UNL1       -0.2712
      8 C         140.1181  138.0618  157.4468 C.3     1  UNL1        0.0725
      9 C         140.0813  138.4010  158.9075 C.3     1  UNL1        0.0217
     10 C         141.3527  138.4307  159.7029 C.3     1  UNL1        0.0251
     11 C         142.6609  138.1213  159.0376 C.3     1  UNL1        0.0217
     12 C         142.6978  137.7821  157.5769 C.3     1  UNL1        0.0725
     13 C         141.4632  137.4132  155.3208 C.3     1  UNL1        0.0977
     14 C         142.4485  136.4043  154.8098 C.3     1  UNL1        0.1681
     15 C         142.3212  133.5644  155.7685 C.3     1  UNL1        0.1761
     16 S         142.3848  134.9843  155.2891 S.O2    1  UNL1       -0.0068
     17 O         140.9283  134.9300  154.9349 O.2     1  UNL1       -0.1729
     18 O         143.8414  135.0387  155.6434 O.2     1  UNL1       -0.1729
     19 C         142.6645  141.5736  163.6273 C.2     1  UNL1       -0.0253
     20 C         141.9372  142.8852  163.6525 C.2     1  UNL1       -0.0303
     21 C         142.6299  144.1175  164.1540 C.3     1  UNL1        0.0257
     22 C         144.0501  144.0382  164.6304 C.3     1  UNL1        0.0050
     23 C         144.7774  142.7266  164.6052 C.3     1  UNL1        0.0050
     24 C         144.0846  141.4943  164.1037 C.3     1  UNL1        0.0261
     25 N         141.2052  139.7874  165.5457 N.am    1  UNL1       -0.2779
     26 C         142.2400  139.2226  166.4731 C.2     1  UNL1        0.2837
     27 O         143.3118  138.3186  165.9398 O.2     1  UNL1       -0.2665
     28 H         140.5019  140.3807  165.8956 H       1  UNL1        0.1553
     29 C         142.2032  139.5618  167.9338 C.ar    1  UNL1        0.1959
     30 N         141.3320  140.6003  168.5761 N.ar    1  UNL1       -0.2123
     31 C         141.6215  140.6023  170.0479 C.ar    1  UNL1        0.1678
     32 C         142.6715  139.5651  170.3152 C.ar    1  UNL1        0.1036
     33 N         143.0311  138.9219  169.0087 N.ar    1  UNL1       -0.3319
     34 H         143.6940  138.2056  168.8793 H       1  UNL1        0.1676
     35 C         140.9745  141.4864  171.0725 C.1     1  UNL1        0.1214
     36 N         140.3275  142.3705  172.0970 N.1     1  UNL1       -0.1892
@<TRIPOS>BOND
     1    15    16    1
     2    16    17    2
     3    16    18    2
     4    16    14    1
     5    14    13    1
     6    13     7    1
     7     7     8    1
     8     8     9    1
     9     9    10    1
    10    10     1    1
    11     1     2   ar
    12     2     3   ar
    13     3     4   ar
    14     4    25    1
    15    25    26   am
    16    26    27    2
    17    26    29    1
    18    29    30   ar
    19    30    31   ar
    20    31    35    1
    21    35    36    3
    22    31    32   ar
    23    32    33   ar
    24     4     5   ar
    25     5    19    1
    26    19    20    2
    27    20    21    1
    28    21    22    1
    29    22    23    1
    30    23    24    1
    31     5     6   ar
    32    10    11    1
    33    11    12    1
    34    12     7    1
    35     6     1   ar
    36    33    29   ar
    37    24    19    1
    38    25    28    1
    39    33    34    1
@<TRIPOS>MOLECULE
*****
 36 39 0 0 0
SMALL
GASTEIGER

@<TRIPOS>ATOM
      1 C         141.0987  139.1423  164.5840 C.ar    1  UNL1       -0.0223
      2 C         141.5669  137.8064  164.0878 C.ar    1  UNL1       -0.0030
      3 C         141.6957  137.5567  162.6143 C.ar    1  UNL1        0.0143
      4 C         141.3562  138.6428  161.6371 C.ar    1  UNL1        0.0502
      5 C         140.8880  139.9787  162.1333 C.ar    1  UNL1        0.0089
      6 C         140.7592  140.2284  163.6067 C.ar    1  UNL1       -0.0034
      7 N         140.7125  139.8914  169.0044 N.3     1  UNL1       -0.2712
      8 C         139.4908  139.8913  168.1341 C.3     1  UNL1        0.0725
      9 C         139.6195  139.6416  166.6607 C.3     1  UNL1        0.0217
     10 C         140.9700  139.3920  166.0574 C.3     1  UNL1        0.0251
     11 C         142.1917  139.3920  166.9277 C.3     1  UNL1        0.0217
     12 C         142.0630  139.6418  168.4011 C.3     1  UNL1        0.0725
     13 C         140.5838  140.1411  170.4778 C.3     1  UNL1        0.0977
     14 C         141.1101  141.4140  171.0716 C.3     1  UNL1        0.1681
     15 C         140.3504  144.0560  169.8705 C.3     1  UNL1        0.1761
     16 S         140.7302  142.7350  170.4710 S.O2    1  UNL1       -0.0068
     17 O         139.2952  142.4851  170.8291 O.2     1  UNL1       -0.1729
     18 O         142.1653  142.9849  170.1129 O.2     1  UNL1       -0.1729
     19 C         140.5484  141.0649  161.1560 C.2     1  UNL1       -0.0253
     20 C         141.6369  141.9171  160.5739 C.2     1  UNL1       -0.0303
     21 C         141.2975  143.0033  159.5967 C.3     1  UNL1        0.0257
     22 C         139.8695  143.2373  159.2016 C.3     1  UNL1        0.0050
     23 C         138.7810  142.3850  159.7837 C.3     1  UNL1        0.0050
     24 C         139.1205  141.2988  160.7609 C.3     1  UNL1        0.0261
     25 N         141.4849  138.3931  160.1636 N.am    1  UNL1       -0.2779
     26 C         142.8399  138.3820  159.5204 C.2     1  UNL1        0.2837
     27 O         144.0663  138.6206  160.3506 O.2     1  UNL1       -0.2665
     28 H         140.6800  138.2365  159.6187 H       1  UNL1        0.1553
     29 C         142.9686  138.1323  158.0469 C.ar    1  UNL1        0.1959
     30 N         142.5307  136.8950  157.3208 N.ar    1  UNL1       -0.2123
     31 C         142.8493  137.0740  155.8659 C.ar    1  UNL1        0.1678
     32 C         143.4841  138.4220  155.6930 C.ar    1  UNL1        0.1036
     33 N         143.5579  139.0761  157.0409 N.ar    1  UNL1       -0.3319
     34 H         143.9281  139.9682  157.2317 H       1  UNL1        0.1676
     35 C         142.5803  136.0798  154.7756 C.1     1  UNL1        0.1214
     36 N         142.3114  135.0854  153.6852 N.1     1  UNL1       -0.1892
@<TRIPOS>BOND
     1    15    16    1
     2    16    17    2
     3    16    18    2
     4    16    14    1
     5    14    13    1
     6    13     7    1
     7     7     8    1
     8     8     9    1
     9     9    10    1
    10    10     1    1
    11     1     2   ar
    12     2     3   ar
    13     3     4   ar
    14     4    25    1
    15    25    26   am
    16    26    27    2
    17    26    29    1
    18    29    30   ar
    19    30    31   ar
    20    31    35    1
    21    35    36    3
    22    31    32   ar
    23    32    33   ar
    24     4     5   ar
    25     5    19    1
    26    19    20    2
    27    20    21    1
    28    21    22    1
    29    22    23    1
    30    23    24    1
    31     5     6   ar
    32    10    11    1
    33    11    12    1
    34    12     7    1
    35     6     1   ar
    36    33    29   ar
    37    24    19    1
    38    25    28    1
    39    33    34    1
@<TRIPOS>MOLECULE
*****
 36 39 0 0 0
SMALL
GASTEIGER

@<TRIPOS>ATOM
      1 C         141.1553  138.7535  161.0676 C.ar    1  UNL1       -0.0223
      2 C         141.7150  137.8253  162.1045 C.ar    1  UNL1       -0.0030
      3 C         141.6548  138.1986  163.5561 C.ar    1  UNL1        0.0143
      4 C         141.0350  139.5000  163.9708 C.ar    1  UNL1        0.0502
      5 C         140.4753  140.4282  162.9339 C.ar    1  UNL1        0.0089
      6 C         140.5354  140.0549  161.4823 C.ar    1  UNL1       -0.0034
      7 N         141.3357  137.6337  156.7129 N.3     1  UNL1       -0.2712
      8 C         140.0184  137.9686  157.3473 C.3     1  UNL1        0.0725
      9 C         139.9582  138.3418  158.7988 C.3     1  UNL1        0.0217
     10 C         141.2154  138.3802  159.6161 C.3     1  UNL1        0.0251
     11 C         142.5328  138.0454  158.9817 C.3     1  UNL1        0.0217
     12 C         142.5929  137.6721  157.5302 C.3     1  UNL1        0.0725
     13 C         141.3959  137.2605  155.2613 C.3     1  UNL1        0.0977
     14 C         142.4074  136.2604  154.7854 C.3     1  UNL1        0.1681
     15 C         142.2634  133.4161  155.7286 C.3     1  UNL1        0.1761
     16 S         142.3354  134.8383  155.2570 S.O2    1  UNL1       -0.0068
     17 O         143.7811  134.8962  155.6526 O.2     1  UNL1       -0.1729
     18 O         140.8896  134.7803  154.8614 O.2     1  UNL1       -0.1729
     19 C         139.8554  141.7297  163.3486 C.2     1  UNL1       -0.0253
     20 C         138.3765  141.8146  163.5843 C.2     1  UNL1       -0.0303
     21 C         137.7566  143.1160  163.9989 C.3     1  UNL1        0.0257
     22 C         138.6156  144.3326  164.1779 C.3     1  UNL1        0.0050
     23 C         140.0945  144.2477  163.9422 C.3     1  UNL1        0.0050
     24 C         140.7144  142.9462  163.5276 C.3     1  UNL1        0.0261
     25 N         140.9748  139.8732  165.4224 N.am    1  UNL1       -0.2779
     26 C         139.7637  139.5262  166.2364 C.2     1  UNL1        0.2837
     27 O         138.6127  138.8059  165.5989 O.2     1  UNL1       -0.2665
     28 H         141.7303  140.3460  165.8408 H       1  UNL1        0.1553
     29 C         139.7036  139.8994  167.6880 C.ar    1  UNL1        0.1959
     30 N         140.7256  140.7046  168.4345 N.ar    1  UNL1       -0.2123
     31 C         140.2646  140.8358  169.8558 C.ar    1  UNL1        0.1678
     32 C         138.9575  140.1118  169.9878 C.ar    1  UNL1        0.1036
     33 N         138.6108  139.5331  168.6481 N.ar    1  UNL1       -0.3319
     34 H         137.8071  139.0054  168.4361 H       1  UNL1        0.1676
     35 C         140.9841  141.5633  170.9525 C.1     1  UNL1        0.1214
     36 N         141.7036  142.2909  172.0493 N.1     1  UNL1       -0.1892
@<TRIPOS>BOND
     1    15    16    1
     2    16    17    2
     3    16    18    2
     4    16    14    1
     5    14    13    1
     6    13     7    1
     7     7     8    1
     8     8     9    1
     9     9    10    1
    10    10     1    1
    11     1     2   ar
    12     2     3   ar
    13     3     4   ar
    14     4    25    1
    15    25    26   am
    16    26    27    2
    17    26    29    1
    18    29    30   ar
    19    30    31   ar
    20    31    35    1
    21    35    36    3
    22    31    32   ar
    23    32    33   ar
    24     4     5   ar
    25     5    19    1
    26    19    20    2
    27    20    21    1
    28    21    22    1
    29    22    23    1
    30    23    24    1
    31     5     6   ar
    32    10    11    1
    33    11    12    1
    34    12     7    1
    35     6     1   ar
    36    33    29   ar
    37    24    19    1
    38    25    28    1
    39    33    34    1
@<TRIPOS>MOLECULE
*****
 36 39 0 0 0
SMALL
GASTEIGER

@<TRIPOS>ATOM
      1 C         139.3390  139.6224  160.6365 C.ar    1  UNL1       -0.0223
      2 C         139.7268  138.3853  161.3910 C.ar    1  UNL1       -0.0030
      3 C         139.9528  138.4503  162.8724 C.ar    1  UNL1        0.0143
      4 C         139.7910  139.7522  163.5995 C.ar    1  UNL1        0.0502
      5 C         139.4032  140.9893  162.8450 C.ar    1  UNL1        0.0089
      6 C         139.1772  140.9244  161.3636 C.ar    1  UNL1       -0.0034
      7 N         138.6611  139.4277  156.1922 N.3     1  UNL1       -0.2712
      8 C         139.5642  138.4319  156.8574 C.3     1  UNL1        0.0725
      9 C         139.7902  138.4968  158.3389 C.3     1  UNL1        0.0217
     10 C         139.1130  139.5575  159.1551 C.3     1  UNL1        0.0251
     11 C         138.2099  140.5533  158.4898 C.3     1  UNL1        0.0217
     12 C         137.9839  140.4884  157.0084 C.3     1  UNL1        0.0725
     13 C         138.4351  139.3628  154.7107 C.3     1  UNL1        0.0977
     14 C         137.1496  138.8088  154.1717 C.3     1  UNL1        0.1681
     15 C         134.6197  140.4065  154.3889 C.3     1  UNL1        0.1761
     16 S         135.8846  139.6077  154.2803 S.O2    1  UNL1       -0.0068
     17 O         135.3580  138.6359  155.2944 O.2     1  UNL1       -0.1729
     18 O         136.4113  140.5795  153.2663 O.2     1  UNL1       -0.1729
     19 C         139.2414  142.2914  163.5720 C.2     1  UNL1       -0.0253
     20 C         140.4337  143.1689  163.8132 C.2     1  UNL1       -0.0303
     21 C         140.2720  144.4710  164.5402 C.3     1  UNL1        0.0257
     22 C         138.9178  144.8955  165.0260 C.3     1  UNL1        0.0050
     23 C         137.7254  144.0179  164.7849 C.3     1  UNL1        0.0050
     24 C         137.8872  142.7158  164.0579 C.3     1  UNL1        0.0261
     25 N         140.0170  139.8171  165.0809 N.am    1  UNL1       -0.2779
     26 C         141.4001  140.0327  165.6199 C.2     1  UNL1        0.2837
     27 O         142.5573  140.1834  164.6774 O.2     1  UNL1       -0.2665
     28 H         139.2575  139.7183  165.6995 H       1  UNL1        0.1553
     29 C         141.6261  140.0976  167.1013 C.ar    1  UNL1        0.1959
     30 N         140.8946  140.9823  168.0669 N.ar    1  UNL1       -0.2123
     31 C         141.4397  140.7207  169.4397 C.ar    1  UNL1        0.1678
     32 C         142.5080  139.6743  169.3225 C.ar    1  UNL1        0.1036
     33 N         142.6233  139.2892  167.8774 N.ar    1  UNL1       -0.3319
     34 H         143.2443  138.6228  167.5038 H       1  UNL1        0.1676
     35 C         140.9946  141.3882  170.7070 C.1     1  UNL1        0.1214
     36 N         140.5495  142.0558  171.9743 N.1     1  UNL1       -0.1892
@<TRIPOS>BOND
     1    15    16    1
     2    16    17    2
     3    16    18    2
     4    16    14    1
     5    14    13    1
     6    13     7    1
     7     7     8    1
     8     8     9    1
     9     9    10    1
    10    10     1    1
    11     1     2   ar
    12     2     3   ar
    13     3     4   ar
    14     4    25    1
    15    25    26   am
    16    26    27    2
    17    26    29    1
    18    29    30   ar
    19    30    31   ar
    20    31    35    1
    21    35    36    3
    22    31    32   ar
    23    32    33   ar
    24     4     5   ar
    25     5    19    1
    26    19    20    2
    27    20    21    1
    28    21    22    1
    29    22    23    1
    30    23    24    1
    31     5     6   ar
    32    10    11    1
    33    11    12    1
    34    12     7    1
    35     6     1   ar
    36    33    29   ar
    37    24    19    1
    38    25    28    1
    39    33    34    1
@<TRIPOS>MOLECULE
*****
 36 39 0 0 0
SMALL
GASTEIGER

@<TRIPOS>ATOM
      1 C         142.8663  142.3359  164.7682 C.ar    1  UNL1       -0.0223
      2 C         143.1029  143.7982  164.5326 C.ar    1  UNL1       -0.0030
      3 C         143.0983  144.3431  163.1350 C.ar    1  UNL1        0.0143
      4 C         142.8571  143.4256  161.9731 C.ar    1  UNL1        0.0502
      5 C         142.6205  141.9633  162.2088 C.ar    1  UNL1        0.0089
      6 C         142.6251  141.4184  163.6064 C.ar    1  UNL1       -0.0034
      7 N         142.8802  140.7014  168.9609 N.3     1  UNL1       -0.2712
      8 C         142.4217  139.8401  167.8216 C.3     1  UNL1        0.0725
      9 C         142.4171  140.3850  166.4241 C.3     1  UNL1        0.0217
     10 C         142.8710  141.7911  166.1658 C.3     1  UNL1        0.0251
     11 C         143.3294  142.6524  167.3050 C.3     1  UNL1        0.0217
     12 C         143.3340  142.1076  168.7026 C.3     1  UNL1        0.0725
     13 C         142.8848  140.1566  170.3584 C.3     1  UNL1        0.0977
     14 C         141.7076  140.3899  171.2583 C.3     1  UNL1        0.1681
     15 C         139.8650  142.7019  170.7487 C.3     1  UNL1        0.1761
     16 S         140.7863  141.5459  171.0035 S.O2    1  UNL1       -0.0068
     17 O         141.6963  142.4440  171.7880 O.2     1  UNL1       -0.1729
     18 O         139.8764  140.6478  170.2190 O.2     1  UNL1       -0.1729
     19 C         142.3793  141.0457  161.0469 C.2     1  UNL1       -0.0253
     20 C         143.5363  140.3722  160.3704 C.2     1  UNL1       -0.0303
     21 C         143.2951  139.4546  159.2085 C.3     1  UNL1        0.0257
     22 C         141.8969  139.2106  158.7232 C.3     1  UNL1        0.0050
     23 C         140.7399  139.8841  159.3997 C.3     1  UNL1        0.0050
     24 C         140.9811  140.8017  160.5616 C.3     1  UNL1        0.0261
     25 N         142.8525  143.9704  160.5756 N.am    1  UNL1       -0.2779
     26 C         141.5830  144.5076  159.9842 C.2     1  UNL1        0.2837
     27 O         140.3180  144.5000  160.7904 O.2     1  UNL1       -0.2665
     28 H         143.6827  143.9755  160.0465 H       1  UNL1        0.1553
     29 C         141.5784  145.0524  158.5867 C.ar    1  UNL1        0.1959
     30 N         140.4659  145.8288  157.9467 N.ar    1  UNL1       -0.2123
     31 C         140.8854  146.1728  156.5482 C.ar    1  UNL1        0.1678
     32 C         142.2572  145.6090  156.3239 C.ar    1  UNL1        0.1036
     33 N         142.6855  144.9165  157.5837 N.ar    1  UNL1       -0.3319
     34 H         143.5427  144.4541  157.7271 H       1  UNL1        0.1676
     35 C         140.0754  146.9449  155.5494 C.1     1  UNL1        0.1214
     36 N         139.2654  147.7170  154.5506 N.1     1  UNL1       -0.1892
@<TRIPOS>BOND
     1    15    16    1
     2    16    17    2
     3    16    18    2
     4    16    14    1
     5    14    13    1
     6    13     7    1
     7     7     8    1
     8     8     9    1
     9     9    10    1
    10    10     1    1
    11     1     2   ar
    12     2     3   ar
    13     3     4   ar
    14     4    25    1
    15    25    26   am
    16    26    27    2
    17    26    29    1
    18    29    30   ar
    19    30    31   ar
    20    31    35    1
    21    35    36    3
    22    31    32   ar
    23    32    33   ar
    24     4     5   ar
    25     5    19    1
    26    19    20    2
    27    20    21    1
    28    21    22    1
    29    22    23    1
    30    23    24    1
    31     5     6   ar
    32    10    11    1
    33    11    12    1
    34    12     7    1
    35     6     1   ar
    36    33    29   ar
    37    24    19    1
    38    25    28    1
    39    33    34    1
@<TRIPOS>MOLECULE
*****
 36 39 0 0 0
SMALL
GASTEIGER

@<TRIPOS>ATOM
      1 C         143.5562  141.3700  164.7284 C.ar    1  UNL1       -0.0223
      2 C         144.8838  140.9597  164.1635 C.ar    1  UNL1       -0.0030
      3 C         145.1987  141.2229  162.7208 C.ar    1  UNL1        0.0143
      4 C         144.1861  141.8966  161.8429 C.ar    1  UNL1        0.0502
      5 C         142.8585  142.3070  162.4077 C.ar    1  UNL1        0.0089
      6 C         142.5436  142.0437  163.8505 C.ar    1  UNL1       -0.0034
      7 N         142.6113  140.5802  169.0566 N.3     1  UNL1       -0.2712
      8 C         142.5735  139.4567  168.0635 C.3     1  UNL1        0.0725
      9 C         142.8885  139.7199  166.6208 C.3     1  UNL1        0.0217
     10 C         143.2412  141.1067  166.1711 C.3     1  UNL1        0.0251
     11 C         143.2790  142.2303  167.1642 C.3     1  UNL1        0.0217
     12 C         142.9640  141.9670  168.6069 C.3     1  UNL1        0.0725
     13 C         142.2963  140.3169  170.4993 C.3     1  UNL1        0.0977
     14 C         140.8988  140.5090  171.0090 C.3     1  UNL1        0.1681
     15 C         139.6162  143.2182  170.8858 C.3     1  UNL1        0.1761
     16 S         140.2575  141.8636  170.9474 S.O2    1  UNL1       -0.0068
     17 O         139.1196  141.2890  170.1569 O.2     1  UNL1       -0.1729
     18 O         141.3954  142.4382  171.7379 O.2     1  UNL1       -0.1729
     19 C         141.8458  142.9807  161.5298 C.2     1  UNL1       -0.0253
     20 C         141.8718  144.4710  161.3621 C.2     1  UNL1       -0.0303
     21 C         140.8592  145.1447  160.4842 C.3     1  UNL1        0.0257
     22 C         139.8205  144.3280  159.7741 C.3     1  UNL1        0.0050
     23 C         139.7945  142.8377  159.9418 C.3     1  UNL1        0.0050
     24 C         140.8072  142.1640  160.8198 C.3     1  UNL1        0.0261
     25 N         144.5011  142.1599  160.4002 N.am    1  UNL1       -0.2779
     26 C         144.1632  141.1339  159.3594 C.2     1  UNL1        0.2837
     27 O         143.5104  139.8446  159.7614 O.2     1  UNL1       -0.2665
     28 H         144.9296  143.0061  160.1364 H       1  UNL1        0.1553
     29 C         144.4782  141.3972  157.9167 C.ar    1  UNL1        0.1959
     30 N         144.7612  140.3585  156.8722 N.ar    1  UNL1       -0.2123
     31 C         145.0234  141.0647  155.5751 C.ar    1  UNL1        0.1678
     32 C         144.9024  142.5400  155.8179 C.ar    1  UNL1        0.1036
     33 N         144.5654  142.7455  157.2651 N.ar    1  UNL1       -0.3319
     34 H         144.4260  143.6130  157.7093 H       1  UNL1        0.1676
     35 C         145.3493  140.4107  154.2652 C.1     1  UNL1        0.1214
     36 N         145.6752  139.7566  152.9553 N.1     1  UNL1       -0.1892
@<TRIPOS>BOND
     1    15    16    1
     2    16    17    2
     3    16    18    2
     4    16    14    1
     5    14    13    1
     6    13     7    1
     7     7     8    1
     8     8     9    1
     9     9    10    1
    10    10     1    1
    11     1     2   ar
    12     2     3   ar
    13     3     4   ar
    14     4    25    1
    15    25    26   am
    16    26    27    2
    17    26    29    1
    18    29    30   ar
    19    30    31   ar
    20    31    35    1
    21    35    36    3
    22    31    32   ar
    23    32    33   ar
    24     4     5   ar
    25     5    19    1
    26    19    20    2
    27    20    21    1
    28    21    22    1
    29    22    23    1
    30    23    24    1
    31     5     6   ar
    32    10    11    1
    33    11    12    1
    34    12     7    1
    35     6     1   ar
    36    33    29   ar
    37    24    19    1
    38    25    28    1
    39    33    34    1
