@<TRIPOS>MOLECULE
*****
 34 39 0 0 0
SMALL
GASTEIGER

@<TRIPOS>ATOM
      1 C         142.6086  140.7438  166.1640 C.3     1  UNL1        0.1531
      2 C         142.5777  141.7400  165.0430 C.3     1  UNL1        0.1067
      3 N         142.7302  141.2775  163.6243 N.3     1  UNL1       -0.2665
      4 C         142.6992  142.2738  162.5033 C.3     1  UNL1        0.0940
      5 C         142.8517  141.8113  161.0845 C.3     1  UNL1        0.1107
      6 N         143.0352  140.3527  160.7868 N.am    1  UNL1       -0.2764
      7 C         143.1878  139.8902  159.3679 C.2     1  UNL1        0.2302
      8 O         143.3713  138.4316  159.0702 O.2     1  UNL1       -0.2745
      9 C         143.0662  139.3565  161.9077 C.3     1  UNL1        0.1119
     10 C         142.9137  139.8189  163.3265 C.3     1  UNL1        0.1075
     11 C         142.9447  138.8227  164.4475 C.3     1  UNL1        0.1601
     12 O         142.7922  139.2851  165.8662 O.3     1  UNL1       -0.3489
     13 C         140.1124  140.0907  167.6945 C.3     1  UNL1        0.0325
     14 C         141.2080  140.8796  168.3480 C.ar    1  UNL1       -0.0010
     15 C         142.4561  141.2062  167.5828 C.ar    1  UNL1        0.0036
     16 C         143.5517  141.9952  168.2363 C.ar    1  UNL1       -0.0005
     17 C         143.3993  142.4576  169.6551 C.ar    1  UNL1        0.0239
     18 C         142.1511  142.1310  170.4204 C.ar    1  UNL1        0.1428
     19 N         141.7207  142.4494  171.8215 N.ar    1  UNL1       -0.0483
     20 O         140.3590  141.8573  172.0339 O.2     1  UNL1       -0.2415
     21 N         139.9479  141.1729  170.7640 N.ar    1  UNL1       -0.0486
     22 C         141.0555  141.3421  169.7668 C.ar    1  UNL1        0.1390
     23 C         143.1568  140.8864  158.2470 C.3     1  UNL1        0.1131
     24 C         144.4057  141.1801  157.4699 C.ar    1  UNL1        0.0062
     25 C         144.7389  140.3706  156.2518 C.ar    1  UNL1        0.0009
     26 C         145.9879  140.6643  155.4747 C.ar    1  UNL1        0.0386
     27 C         146.9036  141.7675  155.9157 C.ar    1  UNL1        0.1672
     28 N         146.5704  142.5769  157.1338 N.ar    1  UNL1       -0.2252
     29 C         145.3214  142.2833  157.9109 C.ar    1  UNL1        0.0968
     30 N         148.1526  142.0611  155.1387 N.ar    1  UNL1       -0.1708
     31 C         148.2392  142.8821  153.8863 C.ar    1  UNL1        0.2272
     32 N         149.6745  142.9138  153.4511 N.ar    1  UNL1       -0.1044
     33 N         150.4748  142.1123  154.4346 N.ar    1  UNL1       -0.0222
     34 N         149.5342  141.5854  155.4776 N.ar    1  UNL1       -0.0371
@<TRIPOS>BOND
     1    13    14    1
     2    14    15   ar
     3     1    15    1
     4     1     2    1
     5     2     3    1
     6     3     4    1
     7     4     5    1
     8     5     6    1
     9     6     7   am
    10     7     8    2
    11     7    23    1
    12    23    24    1
    13    24    25   ar
    14    25    26   ar
    15    26    27   ar
    16    27    30    1
    17    30    31   ar
    18    31    32   ar
    19    32    33   ar
    20    33    34   ar
    21    27    28   ar
    22    28    29   ar
    23     6     9    1
    24    10     9    1
    25    10    11    1
    26    11    12    1
    27    15    16   ar
    28    16    17   ar
    29    17    18   ar
    30    18    19   ar
    31    19    20   ar
    32    20    21   ar
    33    21    22   ar
    34    22    14   ar
    35    12     1    1
    36    22    18   ar
    37    10     3    1
    38    29    24   ar
    39    34    30   ar
@<TRIPOS>MOLECULE
*****
 34 39 0 0 0
SMALL
GASTEIGER

@<TRIPOS>ATOM
      1 C         142.0454  140.6504  166.1654 C.3     1  UNL1        0.1531
      2 C         141.6659  141.6005  165.0686 C.3     1  UNL1        0.1067
      3 N         141.6539  141.1341  163.6430 N.3     1  UNL1       -0.2665
      4 C         141.2743  142.0843  162.5461 C.3     1  UNL1        0.0940
      5 C         141.2624  141.6179  161.1206 C.3     1  UNL1        0.1107
      6 N         141.6300  140.2013  160.7918 N.am    1  UNL1       -0.2764
      7 C         141.6180  139.7348  159.3662 C.2     1  UNL1        0.2302
      8 O         141.9856  138.3182  159.0374 O.2     1  UNL1       -0.2745
      9 C         142.0095  139.2511  161.8886 C.3     1  UNL1        0.1119
     10 C         142.0215  139.7175  163.3143 C.3     1  UNL1        0.1075
     11 C         142.4011  138.7673  164.4111 C.3     1  UNL1        0.1601
     12 O         142.4130  139.2337  165.8366 O.3     1  UNL1       -0.3489
     13 C         139.6882  140.1096  167.9405 C.3     1  UNL1        0.0325
     14 C         140.8788  140.8464  168.4785 C.ar    1  UNL1       -0.0010
     15 C         142.0574  141.1168  167.5910 C.ar    1  UNL1        0.0036
     16 C         143.2481  141.8536  168.1291 C.ar    1  UNL1       -0.0005
     17 C         143.2601  142.3200  169.5547 C.ar    1  UNL1        0.0239
     18 C         142.0814  142.0496  170.4422 C.ar    1  UNL1        0.1428
     19 N         141.8088  142.3849  171.8785 N.ar    1  UNL1       -0.0483
     20 O         140.4496  141.8553  172.2282 O.2     1  UNL1       -0.2415
     21 N         139.8823  141.1928  171.0080 N.ar    1  UNL1       -0.0486
     22 C         140.8908  141.3128  169.9042 C.ar    1  UNL1        0.1390
     23 C         141.2384  140.6850  158.2694 C.3     1  UNL1        0.1131
     24 C         139.8302  140.7110  157.7536 C.ar    1  UNL1        0.0062
     25 C         139.5549  141.1504  156.3460 C.ar    1  UNL1        0.0009
     26 C         138.1467  141.1763  155.8302 C.ar    1  UNL1        0.0386
     27 C         137.0136  140.7628  156.7219 C.ar    1  UNL1        0.1672
     28 N         137.2888  140.3234  158.1294 N.ar    1  UNL1       -0.2252
     29 C         138.6971  140.2975  158.6453 C.ar    1  UNL1        0.0968
     30 N         135.6053  140.7888  156.2061 N.ar    1  UNL1       -0.1708
     31 C         135.1108  141.5807  155.0320 C.ar    1  UNL1        0.2272
     32 N         133.6441  141.3087  154.8741 N.ar    1  UNL1       -0.1044
     33 N         133.2322  140.3486  155.9506 N.ar    1  UNL1       -0.0222
     34 N         134.4442  140.0273  156.7737 N.ar    1  UNL1       -0.0371
@<TRIPOS>BOND
     1    13    14    1
     2    14    15   ar
     3     1    15    1
     4     1     2    1
     5     2     3    1
     6     3     4    1
     7     4     5    1
     8     5     6    1
     9     6     7   am
    10     7     8    2
    11     7    23    1
    12    23    24    1
    13    24    25   ar
    14    25    26   ar
    15    26    27   ar
    16    27    30    1
    17    30    31   ar
    18    31    32   ar
    19    32    33   ar
    20    33    34   ar
    21    27    28   ar
    22    28    29   ar
    23     6     9    1
    24    10     9    1
    25    10    11    1
    26    11    12    1
    27    15    16   ar
    28    16    17   ar
    29    17    18   ar
    30    18    19   ar
    31    19    20   ar
    32    20    21   ar
    33    21    22   ar
    34    22    14   ar
    35    12     1    1
    36    22    18   ar
    37    10     3    1
    38    29    24   ar
    39    34    30   ar
@<TRIPOS>MOLECULE
*****
 34 39 0 0 0
SMALL
GASTEIGER

@<TRIPOS>ATOM
      1 C         142.3126  140.7667  166.1634 C.3     1  UNL1        0.1531
      2 C         141.9203  139.4958  165.4700 C.3     1  UNL1        0.1067
      3 N         142.2442  139.3027  164.0182 N.3     1  UNL1       -0.2665
      4 C         141.8520  138.0317  163.3248 C.3     1  UNL1        0.0940
      5 C         142.1759  137.8387  161.8730 C.3     1  UNL1        0.1107
      6 N         142.8921  138.9165  161.1146 N.am    1  UNL1       -0.2764
      7 C         143.2160  138.7234  159.6627 C.2     1  UNL1        0.2302
      8 O         143.9321  139.8013  158.9042 O.2     1  UNL1       -0.2745
      9 C         143.2843  140.1875  161.8079 C.3     1  UNL1        0.1119
     10 C         142.9604  140.3806  163.2598 C.3     1  UNL1        0.1075
     11 C         143.3527  141.6516  163.9531 C.3     1  UNL1        0.1601
     12 O         143.0288  141.8446  165.4049 O.3     1  UNL1       -0.3489
     13 C         140.3346  142.8642  166.9929 C.3     1  UNL1        0.0325
     14 C         140.9997  142.0086  168.0300 C.ar    1  UNL1       -0.0010
     15 C         141.9887  140.9599  167.6152 C.ar    1  UNL1        0.0036
     16 C         142.6538  140.1042  168.6523 C.ar    1  UNL1       -0.0005
     17 C         142.3300  140.2973  170.1041 C.ar    1  UNL1        0.0239
     18 C         141.3409  141.3461  170.5189 C.ar    1  UNL1        0.1428
     19 N         140.8256  141.7635  171.8643 N.ar    1  UNL1       -0.0483
     20 O         139.8420  142.8772  171.6588 O.2     1  UNL1       -0.2415
     21 N         139.7494  143.1479  170.1863 N.ar    1  UNL1       -0.0486
     22 C         140.6758  142.2017  169.4819 C.ar    1  UNL1        0.1390
     23 C         142.8237  137.4525  158.9694 C.3     1  UNL1        0.1131
     24 C         141.7534  137.4709  157.9186 C.ar    1  UNL1        0.0062
     25 C         141.9350  136.6924  156.6493 C.ar    1  UNL1        0.0009
     26 C         140.8647  136.7108  155.5986 C.ar    1  UNL1        0.0386
     27 C         139.6128  137.5078  155.8170 C.ar    1  UNL1        0.1672
     28 N         139.4313  138.2863  157.0862 N.ar    1  UNL1       -0.2252
     29 C         140.5016  138.2679  158.1370 C.ar    1  UNL1        0.0968
     30 N         138.5426  137.5262  154.7663 N.ar    1  UNL1       -0.1708
     31 C         138.6832  137.0356  153.3558 C.ar    1  UNL1        0.2272
     32 N         137.3712  137.2447  152.6592 N.ar    1  UNL1       -0.1044
     33 N         136.4197  137.8645  153.6393 N.ar    1  UNL1       -0.0222
     34 N         137.1436  138.0385  154.9415 N.ar    1  UNL1       -0.0371
@<TRIPOS>BOND
     1    13    14    1
     2    14    15   ar
     3     1    15    1
     4     1     2    1
     5     2     3    1
     6     3     4    1
     7     4     5    1
     8     5     6    1
     9     6     7   am
    10     7     8    2
    11     7    23    1
    12    23    24    1
    13    24    25   ar
    14    25    26   ar
    15    26    27   ar
    16    27    30    1
    17    30    31   ar
    18    31    32   ar
    19    32    33   ar
    20    33    34   ar
    21    27    28   ar
    22    28    29   ar
    23     6     9    1
    24    10     9    1
    25    10    11    1
    26    11    12    1
    27    15    16   ar
    28    16    17   ar
    29    17    18   ar
    30    18    19   ar
    31    19    20   ar
    32    20    21   ar
    33    21    22   ar
    34    22    14   ar
    35    12     1    1
    36    22    18   ar
    37    10     3    1
    38    29    24   ar
    39    34    30   ar
@<TRIPOS>MOLECULE
*****
 34 39 0 0 0
SMALL
GASTEIGER

@<TRIPOS>ATOM
      1 C         139.5891  141.3366  165.5631 C.3     1  UNL1        0.1531
      2 C         140.6928  141.2528  164.5507 C.3     1  UNL1        0.1067
      3 N         140.3687  141.0105  163.1064 N.3     1  UNL1       -0.2665
      4 C         141.4724  140.9268  162.0939 C.3     1  UNL1        0.0940
      5 C         141.1483  140.6844  160.6495 C.3     1  UNL1        0.1107
      6 N         139.7206  140.5258  160.2176 N.am    1  UNL1       -0.2764
      7 C         139.3966  140.2834  158.7731 C.2     1  UNL1        0.2302
      8 O         137.9689  140.1248  158.3412 O.2     1  UNL1       -0.2745
      9 C         138.6170  140.6095  161.2300 C.3     1  UNL1        0.1119
     10 C         138.9410  140.8519  162.6744 C.3     1  UNL1        0.1075
     11 C         137.8374  140.9356  163.6868 C.3     1  UNL1        0.1601
     12 O         138.1615  141.1779  165.1311 O.3     1  UNL1       -0.3489
     13 C         138.9959  139.2236  167.6085 C.3     1  UNL1        0.0325
     14 C         139.6166  140.5225  168.0302 C.ar    1  UNL1       -0.0010
     15 C         139.9132  141.5789  167.0076 C.ar    1  UNL1        0.0036
     16 C         140.5338  142.8778  167.4292 C.ar    1  UNL1       -0.0005
     17 C         140.8578  143.1202  168.8736 C.ar    1  UNL1        0.0239
     18 C         140.5612  142.0637  169.8964 C.ar    1  UNL1        0.1428
     19 N         140.7680  142.0181  171.3812 N.ar    1  UNL1       -0.0483
     20 O         140.2752  140.6910  171.8773 O.2     1  UNL1       -0.2415
     21 N         139.7639  139.9165  170.6989 N.ar    1  UNL1       -0.0486
     22 C         139.9406  140.7649  169.4747 C.ar    1  UNL1        0.1390
     23 C         140.5002  140.1997  157.7607 C.3     1  UNL1        0.1131
     24 C         141.0872  138.8674  157.3997 C.ar    1  UNL1        0.0062
     25 C         140.3541  137.9539  156.4627 C.ar    1  UNL1        0.0009
     26 C         140.9411  136.6216  156.1016 C.ar    1  UNL1        0.0386
     27 C         142.2613  136.2028  156.6776 C.ar    1  UNL1        0.1672
     28 N         142.9944  137.1162  157.6146 N.ar    1  UNL1       -0.2252
     29 C         142.4074  138.4486  157.9757 C.ar    1  UNL1        0.0968
     30 N         142.8483  134.8705  156.3165 N.ar    1  UNL1       -0.1708
     31 C         143.7365  134.0330  157.1881 C.ar    1  UNL1        0.2272
     32 N         144.0874  132.7866  156.4307 N.ar    1  UNL1       -0.1044
     33 N         143.4160  132.8539  155.0910 N.ar    1  UNL1       -0.0222
     34 N         142.6502  134.1417  155.0204 N.ar    1  UNL1       -0.0371
@<TRIPOS>BOND
     1    13    14    1
     2    14    15   ar
     3     1    15    1
     4     1     2    1
     5     2     3    1
     6     3     4    1
     7     4     5    1
     8     5     6    1
     9     6     7   am
    10     7     8    2
    11     7    23    1
    12    23    24    1
    13    24    25   ar
    14    25    26   ar
    15    26    27   ar
    16    27    30    1
    17    30    31   ar
    18    31    32   ar
    19    32    33   ar
    20    33    34   ar
    21    27    28   ar
    22    28    29   ar
    23     6     9    1
    24    10     9    1
    25    10    11    1
    26    11    12    1
    27    15    16   ar
    28    16    17   ar
    29    17    18   ar
    30    18    19   ar
    31    19    20   ar
    32    20    21   ar
    33    21    22   ar
    34    22    14   ar
    35    12     1    1
    36    22    18   ar
    37    10     3    1
    38    29    24   ar
    39    34    30   ar
@<TRIPOS>MOLECULE
*****
 34 39 0 0 0
SMALL
GASTEIGER

@<TRIPOS>ATOM
      1 C         141.8769  139.5199  165.1958 C.3     1  UNL1        0.1531
      2 C         142.1166  140.7560  164.3806 C.3     1  UNL1        0.1067
      3 N         142.4867  140.6388  162.9318 N.3     1  UNL1       -0.2665
      4 C         142.7263  141.8749  162.1165 C.3     1  UNL1        0.0940
      5 C         143.0964  141.7577  160.6676 C.3     1  UNL1        0.1107
      6 N         143.2269  140.4044  160.0340 N.am    1  UNL1       -0.2764
      7 C         143.5970  140.2873  158.5850 C.2     1  UNL1        0.2302
      8 O         143.7274  138.9340  157.9513 O.2     1  UNL1       -0.2745
      9 C         142.9872  139.1683  160.8491 C.3     1  UNL1        0.1119
     10 C         142.6171  139.2855  162.2981 C.3     1  UNL1        0.1075
     11 C         142.3775  138.0494  163.1133 C.3     1  UNL1        0.1601
     12 O         142.0074  138.1666  164.5621 O.3     1  UNL1       -0.3489
     13 C         138.9895  139.5397  166.0096 C.3     1  UNL1        0.0325
     14 C         140.0631  139.6470  167.0516 C.ar    1  UNL1       -0.0010
     15 C         141.5068  139.6371  166.6448 C.ar    1  UNL1        0.0036
     16 C         142.5805  139.7443  167.6868 C.ar    1  UNL1       -0.0005
     17 C         142.2104  139.8615  169.1356 C.ar    1  UNL1        0.0239
     18 C         140.7667  139.8714  169.5426 C.ar    1  UNL1        0.1428
     19 N         140.1026  139.9743  170.8835 N.ar    1  UNL1       -0.0483
     20 O         138.6184  139.9306  170.6703 O.2     1  UNL1       -0.2415
     21 N         138.3654  139.8008  169.1976 N.ar    1  UNL1       -0.0486
     22 C         139.6930  139.7641  168.5006 C.ar    1  UNL1        0.1390
     23 C         143.8366  141.5234  157.7698 C.3     1  UNL1        0.1131
     24 C         145.1219  141.6856  157.0137 C.ar    1  UNL1        0.0062
     25 C         146.2079  142.5642  157.5604 C.ar    1  UNL1        0.0009
     26 C         147.4932  142.7264  156.8043 C.ar    1  UNL1        0.0386
     27 C         147.6925  142.0101  155.5016 C.ar    1  UNL1        0.1672
     28 N         146.6066  141.1316  154.9549 N.ar    1  UNL1       -0.2252
     29 C         145.3213  140.9693  155.7110 C.ar    1  UNL1        0.0968
     30 N         148.9778  142.1724  154.7455 N.ar    1  UNL1       -0.1708
     31 C         150.2764  141.4894  155.0573 C.ar    1  UNL1        0.2272
     32 N         151.2914  141.9410  154.0493 N.ar    1  UNL1       -0.1044
     33 N         150.6200  142.9031  153.1145 N.ar    1  UNL1       -0.0222
     34 N         149.1902  143.0461  153.5448 N.ar    1  UNL1       -0.0371
@<TRIPOS>BOND
     1    13    14    1
     2    14    15   ar
     3     1    15    1
     4     1     2    1
     5     2     3    1
     6     3     4    1
     7     4     5    1
     8     5     6    1
     9     6     7   am
    10     7     8    2
    11     7    23    1
    12    23    24    1
    13    24    25   ar
    14    25    26   ar
    15    26    27   ar
    16    27    30    1
    17    30    31   ar
    18    31    32   ar
    19    32    33   ar
    20    33    34   ar
    21    27    28   ar
    22    28    29   ar
    23     6     9    1
    24    10     9    1
    25    10    11    1
    26    11    12    1
    27    15    16   ar
    28    16    17   ar
    29    17    18   ar
    30    18    19   ar
    31    19    20   ar
    32    20    21   ar
    33    21    22   ar
    34    22    14   ar
    35    12     1    1
    36    22    18   ar
    37    10     3    1
    38    29    24   ar
    39    34    30   ar
@<TRIPOS>MOLECULE
*****
 34 39 0 0 0
SMALL
GASTEIGER

@<TRIPOS>ATOM
      1 C         142.3707  140.3444  166.1558 C.3     1  UNL1        0.1531
      2 C         141.5027  139.5308  165.2423 C.3     1  UNL1        0.1067
      3 N         141.8654  139.3875  163.7939 N.3     1  UNL1       -0.2665
      4 C         140.9973  138.5738  162.8804 C.3     1  UNL1        0.0940
      5 C         141.3600  138.4305  161.4320 C.3     1  UNL1        0.1107
      6 N         142.5906  139.1008  160.8970 N.am    1  UNL1       -0.2764
      7 C         142.9533  138.9575  159.4486 C.2     1  UNL1        0.2302
      8 O         144.1839  139.6278  158.9137 O.2     1  UNL1       -0.2745
      9 C         143.4587  139.9145  161.8105 C.3     1  UNL1        0.1119
     10 C         143.0960  140.0578  163.2590 C.3     1  UNL1        0.1075
     11 C         143.9640  140.8714  164.1725 C.3     1  UNL1        0.1601
     12 O         143.6014  141.0147  165.6209 O.3     1  UNL1       -0.3489
     13 C         140.7166  142.6765  167.0644 C.3     1  UNL1        0.0325
     14 C         141.1811  141.6538  168.0586 C.ar    1  UNL1       -0.0010
     15 C         142.0081  140.4878  167.6043 C.ar    1  UNL1        0.0036
     16 C         142.4726  139.4650  168.5985 C.ar    1  UNL1       -0.0005
     17 C         142.1100  139.6083  170.0469 C.ar    1  UNL1        0.0239
     18 C         141.2829  140.7744  170.5012 C.ar    1  UNL1        0.1428
     19 N         140.7732  141.1773  171.8531 N.ar    1  UNL1       -0.0483
     20 O         139.9937  142.4490  171.6946 O.2     1  UNL1       -0.2415
     21 N         140.0217  142.8320  170.2446 N.ar    1  UNL1       -0.0486
     22 C         140.8184  141.7971  169.5070 C.ar    1  UNL1        0.1390
     23 C         142.0852  138.1439  158.5351 C.3     1  UNL1        0.1131
     24 C         140.8820  138.7671  157.8918 C.ar    1  UNL1        0.0062
     25 C         140.5906  140.2239  158.0995 C.ar    1  UNL1        0.0009
     26 C         139.3874  140.8471  157.4562 C.ar    1  UNL1        0.0386
     27 C         138.4756  140.0137  156.6053 C.ar    1  UNL1        0.1672
     28 N         138.7670  138.5570  156.3977 N.ar    1  UNL1       -0.2252
     29 C         139.9702  137.9337  157.0409 C.ar    1  UNL1        0.0968
     30 N         137.2724  140.6370  155.9621 N.ar    1  UNL1       -0.1708
     31 C         137.2798  141.5273  154.7549 C.ar    1  UNL1        0.2272
     32 N         135.8624  141.9200  154.4598 N.ar    1  UNL1       -0.1044
     33 N         134.9790  141.2722  155.4846 N.ar    1  UNL1       -0.0222
     34 N         135.8504  140.4793  156.4130 N.ar    1  UNL1       -0.0371
@<TRIPOS>BOND
     1    13    14    1
     2    14    15   ar
     3     1    15    1
     4     1     2    1
     5     2     3    1
     6     3     4    1
     7     4     5    1
     8     5     6    1
     9     6     7   am
    10     7     8    2
    11     7    23    1
    12    23    24    1
    13    24    25   ar
    14    25    26   ar
    15    26    27   ar
    16    27    30    1
    17    30    31   ar
    18    31    32   ar
    19    32    33   ar
    20    33    34   ar
    21    27    28   ar
    22    28    29   ar
    23     6     9    1
    24    10     9    1
    25    10    11    1
    26    11    12    1
    27    15    16   ar
    28    16    17   ar
    29    17    18   ar
    30    18    19   ar
    31    19    20   ar
    32    20    21   ar
    33    21    22   ar
    34    22    14   ar
    35    12     1    1
    36    22    18   ar
    37    10     3    1
    38    29    24   ar
    39    34    30   ar
@<TRIPOS>MOLECULE
*****
 34 39 0 0 0
SMALL
GASTEIGER

@<TRIPOS>ATOM
      1 C         139.3603  142.3309  158.3047 C.3     1  UNL1        0.1531
      2 C         138.5397  142.2066  159.5542 C.3     1  UNL1        0.1067
      3 N         138.8265  141.1071  160.5334 N.3     1  UNL1       -0.2665
      4 C         138.0059  140.9828  161.7830 C.3     1  UNL1        0.0940
      5 C         138.2927  139.8833  162.7622 C.3     1  UNL1        0.1107
      6 N         139.3999  138.9081  162.4919 N.am    1  UNL1       -0.2764
      7 C         139.6866  137.8086  163.4712 C.2     1  UNL1        0.2302
      8 O         140.7939  136.8335  163.2009 O.2     1  UNL1       -0.2745
      9 C         140.2204  139.0325  161.2424 C.3     1  UNL1        0.1119
     10 C         139.9337  140.1320  160.2631 C.3     1  UNL1        0.1075
     11 C         140.7543  140.2563  159.0137 C.3     1  UNL1        0.1601
     12 O         140.4675  141.3558  158.0345 O.3     1  UNL1       -0.3489
     13 C         141.0275  144.8249  158.3190 C.3     1  UNL1        0.0325
     14 C         139.9072  144.6774  157.3326 C.ar    1  UNL1       -0.0010
     15 C         139.0736  143.4304  157.3254 C.ar    1  UNL1        0.0036
     16 C         137.9532  143.2829  156.3390 C.ar    1  UNL1       -0.0005
     17 C         137.6665  144.3823  155.3597 C.ar    1  UNL1        0.0239
     18 C         138.5001  145.6294  155.3669 C.ar    1  UNL1        0.1428
     19 N         138.4542  146.8722  154.5283 N.ar    1  UNL1       -0.0483
     20 O         139.5462  147.7878  154.9964 O.2     1  UNL1       -0.2415
     21 N         140.2669  147.1109  156.1244 N.ar    1  UNL1       -0.0486
     22 C         139.6205  145.7769  156.3533 C.ar    1  UNL1        0.1390
     23 C         138.8661  137.6843  164.7207 C.3     1  UNL1        0.1131
     24 C         139.1589  138.5628  165.9006 C.ar    1  UNL1        0.0062
     25 C         140.4282  139.3610  165.9448 C.ar    1  UNL1        0.0009
     26 C         140.7209  140.2396  167.1248 C.ar    1  UNL1        0.0386
     27 C         139.7445  140.3200  168.2606 C.ar    1  UNL1        0.1672
     28 N         138.4753  139.5219  168.2165 N.ar    1  UNL1       -0.2252
     29 C         138.1824  138.6433  167.0365 C.ar    1  UNL1        0.0968
     30 N         140.0373  141.1985  169.4406 N.ar    1  UNL1       -0.1708
     31 C         140.4559  142.6379  169.3859 C.ar    1  UNL1        0.2272
     32 N         140.6402  143.1209  170.7941 N.ar    1  UNL1       -0.1044
     33 N         140.3355  141.9800  171.7191 N.ar    1  UNL1       -0.0222
     34 N         139.9629  140.7920  170.8826 N.ar    1  UNL1       -0.0371
@<TRIPOS>BOND
     1    13    14    1
     2    14    15   ar
     3     1    15    1
     4     1     2    1
     5     2     3    1
     6     3     4    1
     7     4     5    1
     8     5     6    1
     9     6     7   am
    10     7     8    2
    11     7    23    1
    12    23    24    1
    13    24    25   ar
    14    25    26   ar
    15    26    27   ar
    16    27    30    1
    17    30    31   ar
    18    31    32   ar
    19    32    33   ar
    20    33    34   ar
    21    27    28   ar
    22    28    29   ar
    23     6     9    1
    24    10     9    1
    25    10    11    1
    26    11    12    1
    27    15    16   ar
    28    16    17   ar
    29    17    18   ar
    30    18    19   ar
    31    19    20   ar
    32    20    21   ar
    33    21    22   ar
    34    22    14   ar
    35    12     1    1
    36    22    18   ar
    37    10     3    1
    38    29    24   ar
    39    34    30   ar
@<TRIPOS>MOLECULE
*****
 34 39 0 0 0
SMALL
GASTEIGER

@<TRIPOS>ATOM
      1 C         139.9175  140.1950  164.3414 C.3     1  UNL1        0.1531
      2 C         141.1359  139.8612  163.5327 C.3     1  UNL1        0.1067
      3 N         140.9919  139.4249  162.1049 N.3     1  UNL1       -0.2665
      4 C         142.2104  139.0911  161.2961 C.3     1  UNL1        0.0940
      5 C         142.0664  138.6548  159.8682 C.3     1  UNL1        0.1107
      6 N         140.7040  138.5523  159.2490 N.am    1  UNL1       -0.2764
      7 C         140.5601  138.1160  157.8211 C.2     1  UNL1        0.2302
      8 O         139.1977  138.0135  157.2019 O.2     1  UNL1       -0.2745
      9 C         139.4856  138.8862  160.0577 C.3     1  UNL1        0.1119
     10 C         139.6295  139.3225  161.4857 C.3     1  UNL1        0.1075
     11 C         138.4111  139.6563  162.2943 C.3     1  UNL1        0.1601
     12 O         138.5551  140.0926  163.7222 O.3     1  UNL1       -0.3489
     13 C         138.4501  138.7334  166.5118 C.3     1  UNL1        0.0325
     14 C         139.3278  139.9005  166.8545 C.ar    1  UNL1       -0.0010
     15 C         140.0615  140.6314  165.7694 C.ar    1  UNL1        0.0036
     16 C         140.9391  141.7985  166.1121 C.ar    1  UNL1       -0.0005
     17 C         141.0831  142.2349  167.5400 C.ar    1  UNL1        0.0239
     18 C         140.3494  141.5040  168.6252 C.ar    1  UNL1        0.1428
     19 N         140.2968  141.7030  170.1109 N.ar    1  UNL1       -0.0483
     20 O         139.3866  140.6588  170.6865 O.2     1  UNL1       -0.2415
     21 N         138.8767  139.8145  169.5564 N.ar    1  UNL1       -0.0486
     22 C         139.4717  140.3368  168.2825 C.ar    1  UNL1        0.1390
     23 C         141.7785  137.7822  157.0124 C.3     1  UNL1        0.1131
     24 C         142.1338  136.3490  156.7483 C.ar    1  UNL1        0.0062
     25 C         141.4457  135.5961  155.6484 C.ar    1  UNL1        0.0009
     26 C         141.8010  134.1629  155.3844 C.ar    1  UNL1        0.0386
     27 C         142.8444  133.4827  156.2202 C.ar    1  UNL1        0.1672
     28 N         143.5325  134.2355  157.3200 N.ar    1  UNL1       -0.2252
     29 C         143.1772  135.6687  157.5841 C.ar    1  UNL1        0.0968
     30 N         143.1998  132.0495  155.9561 N.ar    1  UNL1       -0.1708
     31 C         144.5853  131.5030  155.7780 C.ar    1  UNL1        0.2272
     32 N         144.4738  130.0269  155.5356 N.ar    1  UNL1       -0.1044
     33 N         143.0193  129.6611  155.5638 N.ar    1  UNL1       -0.0222
     34 N         142.2319  130.9111  155.8237 N.ar    1  UNL1       -0.0371
@<TRIPOS>BOND
     1    13    14    1
     2    14    15   ar
     3     1    15    1
     4     1     2    1
     5     2     3    1
     6     3     4    1
     7     4     5    1
     8     5     6    1
     9     6     7   am
    10     7     8    2
    11     7    23    1
    12    23    24    1
    13    24    25   ar
    14    25    26   ar
    15    26    27   ar
    16    27    30    1
    17    30    31   ar
    18    31    32   ar
    19    32    33   ar
    20    33    34   ar
    21    27    28   ar
    22    28    29   ar
    23     6     9    1
    24    10     9    1
    25    10    11    1
    26    11    12    1
    27    15    16   ar
    28    16    17   ar
    29    17    18   ar
    30    18    19   ar
    31    19    20   ar
    32    20    21   ar
    33    21    22   ar
    34    22    14   ar
    35    12     1    1
    36    22    18   ar
    37    10     3    1
    38    29    24   ar
    39    34    30   ar
@<TRIPOS>MOLECULE
*****
 34 39 0 0 0
SMALL
GASTEIGER

@<TRIPOS>ATOM
      1 C         140.0968  140.3393  166.0789 C.3     1  UNL1        0.1531
      2 C         139.1087  141.0753  165.2234 C.3     1  UNL1        0.1067
      3 N         139.0159  140.7745  163.7569 N.3     1  UNL1       -0.2665
      4 C         138.0278  141.5105  162.9013 C.3     1  UNL1        0.0940
      5 C         137.9350  141.2097  161.4347 C.3     1  UNL1        0.1107
      6 N         138.8303  140.1728  160.8237 N.am    1  UNL1       -0.2764
      7 C         138.7374  139.8720  159.3570 C.2     1  UNL1        0.2302
      8 O         139.6327  138.8351  158.7460 O.2     1  UNL1       -0.2745
      9 C         139.8183  139.4368  161.6792 C.3     1  UNL1        0.1119
     10 C         139.9112  139.7376  163.1458 C.3     1  UNL1        0.1075
     11 C         140.8992  139.0016  164.0013 C.3     1  UNL1        0.1601
     12 O         140.9920  139.3024  165.4679 O.3     1  UNL1       -0.3489
     13 C         142.3181  142.0673  167.1181 C.3     1  UNL1        0.0325
     14 C         141.3002  141.5042  168.0651 C.ar    1  UNL1       -0.0010
     15 C         140.1896  140.6402  167.5456 C.ar    1  UNL1        0.0036
     16 C         139.1718  140.0770  168.4926 C.ar    1  UNL1       -0.0005
     17 C         139.2646  140.3778  169.9592 C.ar    1  UNL1        0.0239
     18 C         140.3752  141.2418  170.4788 C.ar    1  UNL1        0.1428
     19 N         140.7215  141.7073  171.8619 N.ar    1  UNL1       -0.0483
     20 O         141.9533  142.5582  171.7699 O.2     1  UNL1       -0.2415
     21 N         142.3683  142.6186  170.3297 N.ar    1  UNL1       -0.0486
     22 C         141.3931  141.8050  169.5318 C.ar    1  UNL1        0.1390
     23 C         137.7494  140.6080  158.5015 C.3     1  UNL1        0.1131
     24 C         138.1733  141.8382  157.7554 C.ar    1  UNL1        0.0062
     25 C         139.4864  142.4913  158.0706 C.ar    1  UNL1        0.0009
     26 C         139.9104  143.7215  157.3244 C.ar    1  UNL1        0.0386
     27 C         139.0213  144.2986  156.2630 C.ar    1  UNL1        0.1672
     28 N         137.7083  143.6455  155.9478 N.ar    1  UNL1       -0.2252
     29 C         137.2843  142.4153  156.6940 C.ar    1  UNL1        0.0968
     30 N         139.4453  145.5288  155.5168 N.ar    1  UNL1       -0.1708
     31 C         138.8876  146.9088  155.7027 C.ar    1  UNL1        0.2272
     32 N         139.5991  147.8280  154.7544 N.ar    1  UNL1       -0.1044
     33 N         140.5965  147.0160  153.9825 N.ar    1  UNL1       -0.0222
     34 N         140.5015  145.5951  154.4537 N.ar    1  UNL1       -0.0371
@<TRIPOS>BOND
     1    13    14    1
     2    14    15   ar
     3     1    15    1
     4     1     2    1
     5     2     3    1
     6     3     4    1
     7     4     5    1
     8     5     6    1
     9     6     7   am
    10     7     8    2
    11     7    23    1
    12    23    24    1
    13    24    25   ar
    14    25    26   ar
    15    26    27   ar
    16    27    30    1
    17    30    31   ar
    18    31    32   ar
    19    32    33   ar
    20    33    34   ar
    21    27    28   ar
    22    28    29   ar
    23     6     9    1
    24    10     9    1
    25    10    11    1
    26    11    12    1
    27    15    16   ar
    28    16    17   ar
    29    17    18   ar
    30    18    19   ar
    31    19    20   ar
    32    20    21   ar
    33    21    22   ar
    34    22    14   ar
    35    12     1    1
    36    22    18   ar
    37    10     3    1
    38    29    24   ar
    39    34    30   ar
