@<TRIPOS>MOLECULE
*****
 31 35 0 0 0
SMALL
GASTEIGER

@<TRIPOS>ATOM
      1 N         139.5285  141.1127  162.8002 N.3     1  UNL1       -0.2725
      2 C         139.1340  142.1919  163.7643 C.3     1  UNL1        0.0738
      3 C         139.3620  142.0040  165.2349 C.3     1  UNL1        0.0376
      4 C         139.9845  140.7367  165.7414 C.3     1  UNL1        0.0841
      5 C         140.3790  139.6574  164.7772 C.3     1  UNL1        0.0376
      6 C         140.1509  139.8454  163.3067 C.3     1  UNL1        0.0738
      7 N         140.2125  140.5487  167.2120 N.am    1  UNL1       -0.2423
      8 C         139.3482  139.7515  168.1433 C.2     1  UNL1        0.3309
      9 O         138.1042  139.0024  167.7677 O.2     1  UNL1       -0.2501
     10 N         139.9464  139.8350  169.5164 N.am    1  UNL1       -0.1647
     11 C         141.1804  140.6838  169.4336 C.2     1  UNL1        0.0706
     12 C         142.1755  141.1119  170.4711 C.3     1  UNL1        0.0705
     13 C         143.3352  141.9813  170.0843 C.2     1  UNL1       -0.0199
     14 C         143.4996  142.4224  168.6601 C.2     1  UNL1       -0.0029
     15 C         142.5045  141.9942  167.6226 C.2     1  UNL1        0.0156
     16 C         141.3449  141.1249  168.0094 C.2     1  UNL1        0.0668
     17 C         139.3004  141.3007  161.3296 C.3     1  UNL1        0.0739
     18 C         140.4576  141.2387  160.3772 C.3     1  UNL1        0.0392
     19 C         141.3858  142.4100  160.2476 C.3     1  UNL1        0.0996
     20 O         139.6307  144.8366  160.4239 O.2     1  UNL1       -0.2745
     21 C         140.6683  144.5833  161.4772 C.2     1  UNL1        0.2297
     22 C         140.8283  145.5433  162.6186 C.3     1  UNL1        0.0903
     23 C         141.8658  145.2900  163.6718 C.3     1  UNL1        0.0372
     24 C         142.7434  144.0766  163.5837 C.ar    1  UNL1       -0.0079
     25 C         143.7809  143.8233  164.6370 C.ar    1  UNL1       -0.0007
     26 C         144.6584  142.6100  164.5488 C.ar    1  UNL1        0.0294
     27 C         144.4984  141.6500  163.4074 C.ar    1  UNL1        0.1414
     28 F         145.3760  140.4367  163.3193 F       1  UNL1       -0.2041
     29 C         143.4609  141.9033  162.3542 C.ar    1  UNL1        0.0442
     30 C         142.5834  143.1166  162.4423 C.ar    1  UNL1        0.0521
     31 N         141.5458  143.3700  161.3890 N.am    1  UNL1       -0.2588
@<TRIPOS>BOND
     1    20    21    2
     2    21    22    1
     3    22    23    1
     4    23    24    1
     5    24    25   ar
     6    25    26   ar
     7    26    27   ar
     8    27    28    1
     9    27    29   ar
    10    29    30   ar
    11    30    31    1
    12    31    19    1
    13    19    18    1
    14    18    17    1
    15    17     1    1
    16     1     2    1
    17     2     3    1
    18     3     4    1
    19     4     7    1
    20     7     8   am
    21     8     9    2
    22     8    10    1
    23    10    11    2
    24    11    12    1
    25    12    13    1
    26    13    14    2
    27    14    15    1
    28    15    16    2
    29     4     5    1
    30     5     6    1
    31    31    21   am
    32     6     1    1
    33    30    24   ar
    34    16     7    1
    35    16    11    1
@<TRIPOS>MOLECULE
*****
 31 35 0 0 0
SMALL
GASTEIGER

@<TRIPOS>ATOM
      1 N         139.5439  138.4741  164.3366 N.3     1  UNL1       -0.2725
      2 C         140.9026  138.4748  164.9720 C.3     1  UNL1        0.0738
      3 C         141.0954  139.0830  166.3296 C.3     1  UNL1        0.0376
      4 C         139.9294  139.6905  167.0517 C.3     1  UNL1        0.0841
      5 C         138.5707  139.6898  166.4162 C.3     1  UNL1        0.0376
      6 C         138.3779  139.0816  165.0586 C.3     1  UNL1        0.0738
      7 N         140.1222  140.2987  168.4092 N.am    1  UNL1       -0.2423
      8 C         139.1831  140.1746  169.5723 C.2     1  UNL1        0.3309
      9 O         137.8865  139.4205  169.5820 O.2     1  UNL1       -0.2501
     10 N         139.7683  140.9369  170.7239 N.am    1  UNL1       -0.1647
     11 C         141.0691  141.5322  170.2726 C.2     1  UNL1        0.0706
     12 C         142.0826  142.3825  170.9796 C.3     1  UNL1        0.0705
     13 C         143.3150  142.8383  170.2559 C.2     1  UNL1       -0.0199
     14 C         143.5336  142.4438  168.8252 C.2     1  UNL1       -0.0029
     15 C         142.5200  141.5935  168.1184 C.2     1  UNL1        0.0156
     16 C         141.2878  141.1377  168.8421 C.2     1  UNL1        0.0668
     17 C         139.3512  137.8659  162.9790 C.3     1  UNL1        0.0739
     18 C         138.8579  138.7107  161.8419 C.3     1  UNL1        0.0392
     19 C         139.5561  139.9944  161.5033 C.3     1  UNL1        0.0996
     20 O         137.0896  141.4575  162.3838 O.2     1  UNL1       -0.2745
     21 C         138.4237  141.8175  162.9674 C.2     1  UNL1        0.2297
     22 C         138.5245  142.9091  163.9913 C.3     1  UNL1        0.0903
     23 C         139.8586  143.2692  164.5749 C.3     1  UNL1        0.0372
     24 C         141.0919  142.5376  164.1346 C.ar    1  UNL1       -0.0079
     25 C         142.4260  142.8976  164.7182 C.ar    1  UNL1       -0.0007
     26 C         143.6592  142.1661  164.2779 C.ar    1  UNL1        0.0294
     27 C         143.5584  141.0745  163.2540 C.ar    1  UNL1        0.1414
     28 F         144.7918  140.3429  162.8138 F       1  UNL1       -0.2041
     29 C         142.2244  140.7144  162.6705 C.ar    1  UNL1        0.0442
     30 C         140.9911  141.4460  163.1107 C.ar    1  UNL1        0.0521
     31 N         139.6570  141.0860  162.5271 N.am    1  UNL1       -0.2588
@<TRIPOS>BOND
     1    20    21    2
     2    21    22    1
     3    22    23    1
     4    23    24    1
     5    24    25   ar
     6    25    26   ar
     7    26    27   ar
     8    27    28    1
     9    27    29   ar
    10    29    30   ar
    11    30    31    1
    12    31    19    1
    13    19    18    1
    14    18    17    1
    15    17     1    1
    16     1     2    1
    17     2     3    1
    18     3     4    1
    19     4     7    1
    20     7     8   am
    21     8     9    2
    22     8    10    1
    23    10    11    2
    24    11    12    1
    25    12    13    1
    26    13    14    2
    27    14    15    1
    28    15    16    2
    29     4     5    1
    30     5     6    1
    31    31    21   am
    32     6     1    1
    33    30    24   ar
    34    16     7    1
    35    16    11    1
@<TRIPOS>MOLECULE
*****
 31 35 0 0 0
SMALL
GASTEIGER

@<TRIPOS>ATOM
      1 N         138.6028  139.8029  164.2552 N.3     1  UNL1       -0.2725
      2 C         138.3194  138.8256  165.3573 C.3     1  UNL1        0.0738
      3 C         138.7838  139.1148  166.7540 C.3     1  UNL1        0.0376
      4 C         139.5315  140.3814  167.0486 C.3     1  UNL1        0.0841
      5 C         139.8148  141.3587  165.9465 C.3     1  UNL1        0.0376
      6 C         139.3504  141.0695  164.5499 C.3     1  UNL1        0.0738
      7 N         139.9958  140.6707  168.4453 N.am    1  UNL1       -0.2423
      8 C         139.2478  140.3543  169.7064 C.2     1  UNL1        0.3309
      9 O         137.9041  139.6932  169.7922 O.2     1  UNL1       -0.2501
     10 N         140.0793  140.8152  170.8666 N.am    1  UNL1       -0.1647
     11 C         141.3414  141.4164  170.3225 C.2     1  UNL1        0.0706
     12 C         142.5308  142.0336  170.9965 C.3     1  UNL1        0.0705
     13 C         143.6687  142.5615  170.1739 C.2     1  UNL1       -0.0199
     14 C         143.6170  142.4722  168.6774 C.2     1  UNL1       -0.0029
     15 C         142.4275  141.8550  168.0035 C.2     1  UNL1        0.0156
     16 C         141.2897  141.3271  168.8261 C.2     1  UNL1        0.0668
     17 C         138.1384  139.5137  162.8586 C.3     1  UNL1        0.0739
     18 C         138.5287  138.2292  162.1894 C.3     1  UNL1        0.0392
     19 C         139.8981  137.6565  162.4060 C.3     1  UNL1        0.0996
     20 O         140.2822  138.3785  159.5196 O.2     1  UNL1       -0.2745
     21 C         141.3027  138.7919  160.5384 C.2     1  UNL1        0.2297
     22 C         142.5152  139.5663  160.1140 C.3     1  UNL1        0.0903
     23 C         143.5356  139.9796  161.1326 C.3     1  UNL1        0.0372
     24 C         143.3436  139.6186  162.5759 C.ar    1  UNL1       -0.0079
     25 C         144.3640  140.0320  163.5946 C.ar    1  UNL1       -0.0007
     26 C         144.1720  139.6710  165.0377 C.ar    1  UNL1        0.0294
     27 C         142.9595  138.8966  165.4622 C.ar    1  UNL1        0.1414
     28 F         142.7674  138.5356  166.9054 F       1  UNL1       -0.2041
     29 C         141.9390  138.4832  164.4435 C.ar    1  UNL1        0.0442
     30 C         142.1311  138.8443  163.0004 C.ar    1  UNL1        0.0521
     31 N         141.1106  138.4309  161.9816 N.am    1  UNL1       -0.2588
@<TRIPOS>BOND
     1    20    21    2
     2    21    22    1
     3    22    23    1
     4    23    24    1
     5    24    25   ar
     6    25    26   ar
     7    26    27   ar
     8    27    28    1
     9    27    29   ar
    10    29    30   ar
    11    30    31    1
    12    31    19    1
    13    19    18    1
    14    18    17    1
    15    17     1    1
    16     1     2    1
    17     2     3    1
    18     3     4    1
    19     4     7    1
    20     7     8   am
    21     8     9    2
    22     8    10    1
    23    10    11    2
    24    11    12    1
    25    12    13    1
    26    13    14    2
    27    14    15    1
    28    15    16    2
    29     4     5    1
    30     5     6    1
    31    31    21   am
    32     6     1    1
    33    30    24   ar
    34    16     7    1
    35    16    11    1
@<TRIPOS>MOLECULE
*****
 31 35 0 0 0
SMALL
GASTEIGER

@<TRIPOS>ATOM
      1 N         141.9998  140.1929  162.5165 N.3     1  UNL1       -0.2725
      2 C         142.7993  139.4846  163.5697 C.3     1  UNL1        0.0738
      3 C         142.3567  139.5269  165.0023 C.3     1  UNL1        0.0376
      4 C         141.1147  140.2775  165.3818 C.3     1  UNL1        0.0841
      5 C         140.3153  140.9858  164.3286 C.3     1  UNL1        0.0376
      6 C         140.7578  140.9435  162.8960 C.3     1  UNL1        0.0738
      7 N         140.6722  140.3198  166.8143 N.am    1  UNL1       -0.2423
      8 C         139.4281  139.6941  167.3716 C.2     1  UNL1        0.3309
      9 O         138.4081  138.9161  166.5942 O.2     1  UNL1       -0.2501
     10 N         139.3830  139.9828  168.8429 N.am    1  UNL1       -0.1647
     11 C         140.5993  140.7871  169.1949 C.2     1  UNL1        0.0706
     12 C         141.0842  141.3566  170.4951 C.3     1  UNL1        0.0705
     13 C         142.3659  142.1345  170.5415 C.2     1  UNL1       -0.0199
     14 C         143.1627  142.3428  169.2877 C.2     1  UNL1       -0.0029
     15 C         142.6778  141.7732  167.9876 C.2     1  UNL1        0.0156
     16 C         141.3961  140.9954  167.9412 C.2     1  UNL1        0.0668
     17 C         142.4424  140.1506  161.0840 C.3     1  UNL1        0.0739
     18 C         143.8506  140.5200  160.7228 C.3     1  UNL1        0.0392
     19 C         144.3221  141.9338  160.8928 C.3     1  UNL1        0.0996
     20 O         146.0878  141.3762  163.2532 O.2     1  UNL1       -0.2745
     21 C         144.9724  142.3724  163.3696 C.2     1  UNL1        0.2297
     22 C         144.7398  143.0898  164.6663 C.3     1  UNL1        0.0903
     23 C         143.6244  144.0859  164.7827 C.3     1  UNL1        0.0372
     24 C         142.7416  144.3647  163.6025 C.ar    1  UNL1       -0.0079
     25 C         141.6262  145.3609  163.7190 C.ar    1  UNL1       -0.0007
     26 C         140.7434  145.6396  162.5388 C.ar    1  UNL1        0.0294
     27 C         140.9759  144.9223  161.2422 C.ar    1  UNL1        0.1414
     28 F         140.0930  145.2011  160.0619 F       1  UNL1       -0.2041
     29 C         142.0913  143.9262  161.1257 C.ar    1  UNL1        0.0442
     30 C         142.9741  143.6474  162.3059 C.ar    1  UNL1        0.0521
     31 N         144.0896  142.6512  162.1894 N.am    1  UNL1       -0.2588
@<TRIPOS>BOND
     1    20    21    2
     2    21    22    1
     3    22    23    1
     4    23    24    1
     5    24    25   ar
     6    25    26   ar
     7    26    27   ar
     8    27    28    1
     9    27    29   ar
    10    29    30   ar
    11    30    31    1
    12    31    19    1
    13    19    18    1
    14    18    17    1
    15    17     1    1
    16     1     2    1
    17     2     3    1
    18     3     4    1
    19     4     7    1
    20     7     8   am
    21     8     9    2
    22     8    10    1
    23    10    11    2
    24    11    12    1
    25    12    13    1
    26    13    14    2
    27    14    15    1
    28    15    16    2
    29     4     5    1
    30     5     6    1
    31    31    21   am
    32     6     1    1
    33    30    24   ar
    34    16     7    1
    35    16    11    1
@<TRIPOS>MOLECULE
*****
 31 35 0 0 0
SMALL
GASTEIGER

@<TRIPOS>ATOM
      1 N         140.4823  139.1909  162.7761 N.3     1  UNL1       -0.2725
      2 C         139.8836  140.4865  163.2375 C.3     1  UNL1        0.0738
      3 C         139.7832  140.7863  164.7038 C.3     1  UNL1        0.0376
      4 C         140.2815  139.7903  165.7087 C.3     1  UNL1        0.0841
      5 C         140.8802  138.4947  165.2473 C.3     1  UNL1        0.0376
      6 C         140.9806  138.1950  163.7810 C.3     1  UNL1        0.0738
      7 N         140.1812  140.0900  167.1750 N.am    1  UNL1       -0.2423
      8 C         139.0881  139.6338  168.0954 C.2     1  UNL1        0.3309
      9 O         137.9035  138.7979  167.7110 O.2     1  UNL1       -0.2501
     10 N         139.3876  140.1604  169.4676 N.am    1  UNL1       -0.1647
     11 C         140.6659  140.9420  169.3954 C.2     1  UNL1        0.0706
     12 C         141.4465  141.6877  170.4367 C.3     1  UNL1        0.0705
     13 C         142.7177  142.3900  170.0612 C.2     1  UNL1       -0.0199
     14 C         143.2082  142.3465  168.6442 C.2     1  UNL1       -0.0029
     15 C         142.4274  141.6008  167.6029 C.2     1  UNL1        0.0156
     16 C         141.1563  140.8985  167.9785 C.2     1  UNL1        0.0668
     17 C         140.5826  138.8912  161.3098 C.3     1  UNL1        0.0739
     18 C         141.1584  139.9118  160.3733 C.3     1  UNL1        0.0392
     19 C         142.6140  140.2654  160.4524 C.3     1  UNL1        0.0996
     20 O         144.1463  138.0093  161.7023 O.2     1  UNL1       -0.2745
     21 C         144.0348  139.3251  162.4138 C.2     1  UNL1        0.2297
     22 C         144.6895  139.5129  163.7502 C.3     1  UNL1        0.0903
     23 C         144.5781  140.8287  164.4617 C.3     1  UNL1        0.0372
     24 C         143.8120  141.9568  163.8368 C.ar    1  UNL1       -0.0079
     25 C         143.7006  143.2726  164.5483 C.ar    1  UNL1       -0.0007
     26 C         142.9345  144.4006  163.9233 C.ar    1  UNL1        0.0294
     27 C         142.2798  144.2128  162.5869 C.ar    1  UNL1        0.1414
     28 F         141.5136  145.3409  161.9619 F       1  UNL1       -0.2041
     29 C         142.3912  142.8970  161.8754 C.ar    1  UNL1        0.0442
     30 C         143.1573  141.7690  162.5003 C.ar    1  UNL1        0.0521
     31 N         143.2687  140.4532  161.7888 N.am    1  UNL1       -0.2588
@<TRIPOS>BOND
     1    20    21    2
     2    21    22    1
     3    22    23    1
     4    23    24    1
     5    24    25   ar
     6    25    26   ar
     7    26    27   ar
     8    27    28    1
     9    27    29   ar
    10    29    30   ar
    11    30    31    1
    12    31    19    1
    13    19    18    1
    14    18    17    1
    15    17     1    1
    16     1     2    1
    17     2     3    1
    18     3     4    1
    19     4     7    1
    20     7     8   am
    21     8     9    2
    22     8    10    1
    23    10    11    2
    24    11    12    1
    25    12    13    1
    26    13    14    2
    27    14    15    1
    28    15    16    2
    29     4     5    1
    30     5     6    1
    31    31    21   am
    32     6     1    1
    33    30    24   ar
    34    16     7    1
    35    16    11    1
@<TRIPOS>MOLECULE
*****
 31 35 0 0 0
SMALL
GASTEIGER

@<TRIPOS>ATOM
      1 N         139.1722  138.7420  163.8380 N.3     1  UNL1       -0.2725
      2 C         140.4432  138.3677  164.5411 C.3     1  UNL1        0.0738
      3 C         140.7093  138.8719  165.9286 C.3     1  UNL1        0.0376
      4 C         139.7043  139.7503  166.6130 C.3     1  UNL1        0.0841
      5 C         138.4332  140.1245  165.9098 C.3     1  UNL1        0.0376
      6 C         138.1671  139.6203  164.5224 C.3     1  UNL1        0.0738
      7 N         139.9703  140.2545  168.0004 N.am    1  UNL1       -0.2423
      8 C         139.0905  140.0475  169.1975 C.2     1  UNL1        0.3309
      9 O         137.7902  139.3000  169.2173 O.2     1  UNL1       -0.2501
     10 N         139.7393  140.7192  170.3713 N.am    1  UNL1       -0.1647
     11 C         141.0201  141.3415  169.8996 C.2     1  UNL1        0.0706
     12 C         142.0747  142.1324  170.6152 C.3     1  UNL1        0.0705
     13 C         143.2723  142.6362  169.8653 C.2     1  UNL1       -0.0199
     14 C         143.4151  142.3490  168.4000 C.2     1  UNL1       -0.0029
     15 C         142.3603  141.5580  167.6845 C.2     1  UNL1        0.0156
     16 C         141.1629  141.0542  168.4343 C.2     1  UNL1        0.0668
     17 C         138.9061  138.2378  162.4506 C.3     1  UNL1        0.0739
     18 C         139.9179  138.4586  161.3655 C.3     1  UNL1        0.0392
     19 C         140.4239  139.8420  161.0821 C.3     1  UNL1        0.0996
     20 O         143.2291  138.8661  161.5049 O.2     1  UNL1       -0.2745
     21 C         142.7193  140.0433  162.2824 C.2     1  UNL1        0.2297
     22 C         143.6122  140.7325  163.2712 C.3     1  UNL1        0.0903
     23 C         143.1025  141.9096  164.0487 C.3     1  UNL1        0.0372
     24 C         141.6999  142.3976  163.8373 C.ar    1  UNL1       -0.0079
     25 C         141.1902  143.5748  164.6148 C.ar    1  UNL1       -0.0007
     26 C         139.7876  144.0627  164.4034 C.ar    1  UNL1        0.0294
     27 C         138.8948  143.3735  163.4145 C.ar    1  UNL1        0.1414
     28 F         137.4922  143.8616  163.2031 F       1  UNL1       -0.2041
     29 C         139.4045  142.1964  162.6371 C.ar    1  UNL1        0.0442
     30 C         140.8070  141.7084  162.8485 C.ar    1  UNL1        0.0521
     31 N         141.3168  140.5312  162.0710 N.am    1  UNL1       -0.2588
@<TRIPOS>BOND
     1    20    21    2
     2    21    22    1
     3    22    23    1
     4    23    24    1
     5    24    25   ar
     6    25    26   ar
     7    26    27   ar
     8    27    28    1
     9    27    29   ar
    10    29    30   ar
    11    30    31    1
    12    31    19    1
    13    19    18    1
    14    18    17    1
    15    17     1    1
    16     1     2    1
    17     2     3    1
    18     3     4    1
    19     4     7    1
    20     7     8   am
    21     8     9    2
    22     8    10    1
    23    10    11    2
    24    11    12    1
    25    12    13    1
    26    13    14    2
    27    14    15    1
    28    15    16    2
    29     4     5    1
    30     5     6    1
    31    31    21   am
    32     6     1    1
    33    30    24   ar
    34    16     7    1
    35    16    11    1
@<TRIPOS>MOLECULE
*****
 31 35 0 0 0
SMALL
GASTEIGER

@<TRIPOS>ATOM
      1 N         141.4061  142.7803  161.7654 N.3     1  UNL1       -0.2725
      2 C         141.8221  141.4387  162.2915 C.3     1  UNL1        0.0738
      3 C         142.1527  141.2728  163.7452 C.3     1  UNL1        0.0376
      4 C         142.0672  142.4485  164.6728 C.3     1  UNL1        0.0841
      5 C         141.6512  143.7902  164.1465 C.3     1  UNL1        0.0376
      6 C         141.3206  143.9561  162.6929 C.3     1  UNL1        0.0738
      7 N         142.3978  142.2827  166.1264 N.am    1  UNL1       -0.2423
      8 C         143.5966  142.8487  166.8281 C.2     1  UNL1        0.3309
      9 O         144.6754  143.6799  166.1994 O.2     1  UNL1       -0.2501
     10 N         143.5273  142.4375  168.2690 N.am    1  UNL1       -0.1647
     11 C         142.2856  141.6173  168.4578 C.2     1  UNL1        0.0706
     12 C         141.7006  140.9453  169.6644 C.3     1  UNL1        0.0705
     13 C         140.4173  140.1776  169.5469 C.2     1  UNL1       -0.0199
     14 C         139.7191  140.0819  168.2226 C.2     1  UNL1       -0.0029
     15 C         140.3043  140.7539  167.0160 C.2     1  UNL1        0.0156
     16 C         141.5876  141.5217  167.1336 C.2     1  UNL1        0.0668
     17 C         141.0755  142.9462  160.3117 C.3     1  UNL1        0.0739
     18 C         139.7498  143.5178  159.9045 C.3     1  UNL1        0.0392
     19 C         138.4806  142.8199  160.2942 C.3     1  UNL1        0.0996
     20 O         137.7671  144.7841  162.4466 O.2     1  UNL1       -0.2745
     21 C         137.9297  143.3309  162.7813 C.2     1  UNL1        0.2297
     22 C         137.7357  142.8599  164.1921 C.3     1  UNL1        0.0903
     23 C         137.8983  141.4068  164.5268 C.3     1  UNL1        0.0372
     24 C         138.2550  140.4247  163.4506 C.ar    1  UNL1       -0.0079
     25 C         138.4177  138.9716  163.7852 C.ar    1  UNL1       -0.0007
     26 C         138.7744  137.9895  162.7091 C.ar    1  UNL1        0.0294
     27 C         138.9685  138.4605  161.2982 C.ar    1  UNL1        0.1414
     28 F         139.3252  137.4783  160.2220 F       1  UNL1       -0.2041
     29 C         138.8058  139.9136  160.9635 C.ar    1  UNL1        0.0442
     30 C         138.4491  140.8957  162.0397 C.ar    1  UNL1        0.0521
     31 N         138.2865  142.3489  161.7051 N.am    1  UNL1       -0.2588
@<TRIPOS>BOND
     1    20    21    2
     2    21    22    1
     3    22    23    1
     4    23    24    1
     5    24    25   ar
     6    25    26   ar
     7    26    27   ar
     8    27    28    1
     9    27    29   ar
    10    29    30   ar
    11    30    31    1
    12    31    19    1
    13    19    18    1
    14    18    17    1
    15    17     1    1
    16     1     2    1
    17     2     3    1
    18     3     4    1
    19     4     7    1
    20     7     8   am
    21     8     9    2
    22     8    10    1
    23    10    11    2
    24    11    12    1
    25    12    13    1
    26    13    14    2
    27    14    15    1
    28    15    16    2
    29     4     5    1
    30     5     6    1
    31    31    21   am
    32     6     1    1
    33    30    24   ar
    34    16     7    1
    35    16    11    1
@<TRIPOS>MOLECULE
*****
 31 35 0 0 0
SMALL
GASTEIGER

@<TRIPOS>ATOM
      1 N         142.9976  140.6580  162.4684 N.3     1  UNL1       -0.2725
      2 C         141.7137  140.1230  163.0299 C.3     1  UNL1        0.0738
      3 C         141.5515  139.9657  164.5129 C.3     1  UNL1        0.0376
      4 C         142.6734  140.3433  165.4342 C.3     1  UNL1        0.0841
      5 C         143.9574  140.8783  164.8726 C.3     1  UNL1        0.0376
      6 C         144.1194  141.0356  163.3898 C.3     1  UNL1        0.0738
      7 N         142.5113  140.1860  166.9171 N.am    1  UNL1       -0.2423
      8 C         143.0562  139.0633  167.7494 C.2     1  UNL1        0.3309
      9 O         143.8588  137.9009  167.2449 O.2     1  UNL1       -0.2501
     10 N         142.6575  139.3072  169.1747 N.am    1  UNL1       -0.1647
     11 C         141.8662  140.5806  169.2234 C.2     1  UNL1        0.0706
     12 C         141.2163  141.3156  170.3579 C.3     1  UNL1        0.0705
     13 C         140.4760  142.5940  170.0972 C.2     1  UNL1       -0.0199
     14 C         140.3856  143.1371  168.7018 C.2     1  UNL1       -0.0029
     15 C         141.0356  142.4020  167.5673 C.2     1  UNL1        0.0156
     16 C         141.7759  141.1237  167.8281 C.2     1  UNL1        0.0668
     17 C         143.1597  140.8153  160.9856 C.3     1  UNL1        0.0739
     18 C         143.7553  142.0729  160.4254 C.3     1  UNL1        0.0392
     19 C         142.9439  143.3339  160.3854 C.3     1  UNL1        0.0996
     20 O         144.3864  144.9081  162.4929 O.2     1  UNL1       -0.2745
     21 C         142.9326  144.5807  162.6647 C.2     1  UNL1        0.2297
     22 C         142.2001  145.0404  163.8903 C.3     1  UNL1        0.0903
     23 C         140.7464  144.7131  164.0622 C.3     1  UNL1        0.0372
     24 C         140.0251  143.9260  163.0084 C.ar    1  UNL1       -0.0079
     25 C         138.5714  143.5986  163.1802 C.ar    1  UNL1       -0.0007
     26 C         137.8503  142.8116  162.1265 C.ar    1  UNL1        0.0294
     27 C         138.5828  142.3518  160.9009 C.ar    1  UNL1        0.1414
     28 F         137.8615  141.5647  159.8472 F       1  UNL1       -0.2041
     29 C         140.0365  142.6792  160.7291 C.ar    1  UNL1        0.0442
     30 C         140.7576  143.4662  161.7828 C.ar    1  UNL1        0.0521
     31 N         142.2114  143.7936  161.6110 N.am    1  UNL1       -0.2588
@<TRIPOS>BOND
     1    20    21    2
     2    21    22    1
     3    22    23    1
     4    23    24    1
     5    24    25   ar
     6    25    26   ar
     7    26    27   ar
     8    27    28    1
     9    27    29   ar
    10    29    30   ar
    11    30    31    1
    12    31    19    1
    13    19    18    1
    14    18    17    1
    15    17     1    1
    16     1     2    1
    17     2     3    1
    18     3     4    1
    19     4     7    1
    20     7     8   am
    21     8     9    2
    22     8    10    1
    23    10    11    2
    24    11    12    1
    25    12    13    1
    26    13    14    2
    27    14    15    1
    28    15    16    2
    29     4     5    1
    30     5     6    1
    31    31    21   am
    32     6     1    1
    33    30    24   ar
    34    16     7    1
    35    16    11    1
@<TRIPOS>MOLECULE
*****
 31 35 0 0 0
SMALL
GASTEIGER

@<TRIPOS>ATOM
      1 N         141.4076  139.3282  162.6252 N.3     1  UNL1       -0.2725
      2 C         140.3202  139.0457  163.6190 C.3     1  UNL1        0.0738
      3 C         140.5563  139.2924  165.0796 C.3     1  UNL1        0.0376
      4 C         141.8800  139.8216  165.5464 C.3     1  UNL1        0.0841
      5 C         142.9674  140.1042  164.5526 C.3     1  UNL1        0.0376
      6 C         142.7312  139.8574  163.0920 C.3     1  UNL1        0.0738
      7 N         142.1162  140.0684  167.0070 N.am    1  UNL1       -0.2423
      8 C         142.9595  139.2267  167.9182 C.2     1  UNL1        0.3309
      9 O         143.7146  137.9905  167.5289 O.2     1  UNL1       -0.2501
     10 N         142.9150  139.8382  169.2872 N.am    1  UNL1       -0.1647
     11 C         142.0443  141.0579  169.2221 C.2     1  UNL1        0.0706
     12 C         141.6372  142.0572  170.2639 C.3     1  UNL1        0.0705
     13 C         140.7363  143.1990  169.8965 C.2     1  UNL1       -0.0199
     14 C         140.2426  143.3412  168.4872 C.2     1  UNL1       -0.0029
     15 C         140.6497  142.3418  167.4454 C.2     1  UNL1        0.0156
     16 C         141.5506  141.2001  167.8128 C.2     1  UNL1        0.0668
     17 C         141.1714  139.0815  161.1647 C.3     1  UNL1        0.0739
     18 C         140.0441  139.7757  160.4595 C.3     1  UNL1        0.0392
     19 C         139.9521  141.2727  160.4848 C.3     1  UNL1        0.0996
     20 O         137.1810  140.8746  161.5631 O.2     1  UNL1       -0.2745
     21 C         138.1416  141.7778  162.2784 C.2     1  UNL1        0.2297
     22 C         137.7167  142.4819  163.5329 C.3     1  UNL1        0.0903
     23 C         138.6772  143.3850  164.2482 C.3     1  UNL1        0.0372
     24 C         140.0628  143.5840  163.7091 C.ar    1  UNL1       -0.0079
     25 C         141.0234  144.4871  164.4244 C.ar    1  UNL1       -0.0007
     26 C         142.4089  144.6861  163.8852 C.ar    1  UNL1        0.0294
     27 C         142.8338  143.9820  162.6308 C.ar    1  UNL1        0.1414
     28 F         144.2194  144.1811  162.0917 F       1  UNL1       -0.2041
     29 C         141.8733  143.0789  161.9155 C.ar    1  UNL1        0.0442
     30 C         140.4878  142.8799  162.4546 C.ar    1  UNL1        0.0521
     31 N         139.5271  141.9768  161.7393 N.am    1  UNL1       -0.2588
@<TRIPOS>BOND
     1    20    21    2
     2    21    22    1
     3    22    23    1
     4    23    24    1
     5    24    25   ar
     6    25    26   ar
     7    26    27   ar
     8    27    28    1
     9    27    29   ar
    10    29    30   ar
    11    30    31    1
    12    31    19    1
    13    19    18    1
    14    18    17    1
    15    17     1    1
    16     1     2    1
    17     2     3    1
    18     3     4    1
    19     4     7    1
    20     7     8   am
    21     8     9    2
    22     8    10    1
    23    10    11    2
    24    11    12    1
    25    12    13    1
    26    13    14    2
    27    14    15    1
    28    15    16    2
    29     4     5    1
    30     5     6    1
    31    31    21   am
    32     6     1    1
    33    30    24   ar
    34    16     7    1
    35    16    11    1
