@<TRIPOS>MOLECULE
*****
 32 35 0 0 0
SMALL
GASTEIGER

@<TRIPOS>ATOM
      1 C         140.1867  141.9294  165.1623 C.ar    1  UNL1        0.0576
      2 C         139.7328  140.8484  164.2268 C.ar    1  UNL1        0.0386
      3 C         139.1898  139.5618  164.7745 C.ar    1  UNL1        0.1286
      4 N         139.1007  139.3563  166.2576 N.ar    1  UNL1       -0.2309
      5 C         139.5546  140.4374  167.1932 C.ar    1  UNL1        0.0829
      6 C         139.4654  140.2320  168.6764 C.ar    1  UNL1        0.0200
      7 C         139.9193  141.3130  169.6119 C.ar    1  UNL1        0.0129
      8 C         140.4623  142.5996  169.0642 C.ar    1  UNL1        0.0578
      9 CL        140.9161  143.6807  169.9998 Cl      1  UNL1       -0.0822
     10 C         140.5514  142.8051  167.5811 C.ar    1  UNL1        0.0130
     11 C         140.0976  141.7240  166.6456 C.ar    1  UNL1        0.0230
     12 O         139.7924  144.3225  164.2307 O.2     1  UNL1       -0.2701
     13 C         140.7296  143.2160  164.6147 C.2     1  UNL1        0.2460
     14 N         142.2097  143.3961  164.4511 N.am    1  UNL1       -0.2994
     15 H         142.8248  142.6699  164.7031 H       1  UNL1        0.1498
     16 C         142.7527  144.6827  163.9034 C.3     1  UNL1        0.1070
     17 C         143.8264  144.6582  162.8561 C.3     1  UNL1        0.0936
     18 N         143.6935  143.7538  161.6668 N.3     1  UNL1       -0.2712
     19 C         142.5279  143.7024  160.7241 C.3     1  UNL1        0.0722
     20 C         142.8169  142.6588  159.6861 C.3     1  UNL1        0.0188
     21 C         144.1611  142.0652  159.9873 C.3     1  UNL1        0.0188
     22 C         144.7029  142.7419  161.2115 C.3     1  UNL1        0.0722
     23 N         138.7360  138.4807  163.8389 N.pl3   1  UNL1       -0.3181
     24 H         137.7762  138.3575  163.6576 H       1  UNL1        0.1482
     25 C         139.7445  137.5873  163.1796 C.3     1  UNL1        0.0882
     26 C         140.9928  137.1958  163.9133 C.3     1  UNL1        0.0214
     27 C         142.2313  138.0325  163.7859 C.3     1  UNL1        0.0067
     28 C         142.8375  138.2741  162.4353 C.3     1  UNL1        0.0322
     29 C         144.0759  139.1108  162.3078 C.3     1  UNL1        0.1422
     30 O         144.7081  139.7059  163.5310 O.3     1  UNL1       -0.3538
     31 C         144.1019  139.4643  164.8816 C.3     1  UNL1        0.1422
     32 C         142.8634  138.6276  165.0090 C.3     1  UNL1        0.0322
@<TRIPOS>BOND
     1    12    13    2
     2    13    14   am
     3    14    16    1
     4    16    17    1
     5    17    18    1
     6    18    19    1
     7    19    20    1
     8    20    21    1
     9    21    22    1
    10    13     1    1
    11     1     2   ar
    12     2     3   ar
    13     3    23    1
    14    23    25    1
    15    25    26    1
    16    26    27    1
    17    27    28    1
    18    28    29    1
    19    29    30    1
    20    30    31    1
    21    31    32    1
    22     3     4   ar
    23     4     5   ar
    24     5     6   ar
    25     6     7   ar
    26     7     8   ar
    27     8     9    1
    28     8    10   ar
    29    10    11   ar
    30    22    18    1
    31    11     1   ar
    32    32    27    1
    33    11     5   ar
    34    14    15    1
    35    23    24    1
@<TRIPOS>MOLECULE
*****
 32 35 0 0 0
SMALL
GASTEIGER

@<TRIPOS>ATOM
      1 C         140.8010  139.9834  165.6781 C.ar    1  UNL1        0.0576
      2 C         142.0424  139.6710  164.8962 C.ar    1  UNL1        0.0386
      3 C         143.3052  139.2943  165.6127 C.ar    1  UNL1        0.1286
      4 N         143.3266  139.2299  167.1112 N.ar    1  UNL1       -0.2309
      5 C         142.0852  139.5423  167.8931 C.ar    1  UNL1        0.0829
      6 C         142.1066  139.4779  169.3916 C.ar    1  UNL1        0.0200
      7 C         140.8652  139.7903  170.1734 C.ar    1  UNL1        0.0129
      8 C         139.6024  140.1671  169.4569 C.ar    1  UNL1        0.0578
      9 CL        138.3610  140.4795  170.2389 Cl      1  UNL1       -0.0822
     10 C         139.5810  140.2314  167.9585 C.ar    1  UNL1        0.0130
     11 C         140.8224  139.9191  167.1766 C.ar    1  UNL1        0.0230
     12 O         138.4619  139.3370  164.7505 O.2     1  UNL1       -0.2701
     13 C         139.5383  140.3602  164.9615 C.2     1  UNL1        0.2460
     14 N         139.3519  141.7600  164.4560 N.am    1  UNL1       -0.2994
     15 H         140.0583  142.4316  164.5945 H       1  UNL1        0.1498
     16 C         138.0891  142.1368  163.7395 C.3     1  UNL1        0.1070
     17 C         138.1414  142.5671  162.3034 C.3     1  UNL1        0.0936
     18 N         138.9091  143.7963  161.9163 N.3     1  UNL1       -0.2712
     19 C         138.9269  145.0965  162.6640 C.3     1  UNL1        0.0722
     20 C         139.8225  146.0449  161.9234 C.3     1  UNL1        0.0188
     21 C         140.3582  145.3308  160.7179 C.3     1  UNL1        0.0188
     22 C         139.7937  143.9410  160.7135 C.3     1  UNL1        0.0722
     23 N         144.5466  138.9819  164.8308 N.pl3   1  UNL1       -0.3181
     24 H         145.0888  138.1934  165.0623 H       1  UNL1        0.1482
     25 C         144.9618  139.8708  163.6962 C.3     1  UNL1        0.0882
     26 C         145.5594  141.2173  163.9783 C.3     1  UNL1        0.0214
     27 C         144.7931  142.4629  163.6446 C.3     1  UNL1        0.0067
     28 C         144.3144  142.6958  162.2422 C.3     1  UNL1        0.0322
     29 C         143.5481  143.9413  161.9085 C.3     1  UNL1        0.1422
     30 O         143.2604  144.9538  162.9771 O.3     1  UNL1       -0.3538
     31 C         143.7390  144.7209  164.3794 C.3     1  UNL1        0.1422
     32 C         144.5054  143.4754  164.7132 C.3     1  UNL1        0.0322
@<TRIPOS>BOND
     1    12    13    2
     2    13    14   am
     3    14    16    1
     4    16    17    1
     5    17    18    1
     6    18    19    1
     7    19    20    1
     8    20    21    1
     9    21    22    1
    10    13     1    1
    11     1     2   ar
    12     2     3   ar
    13     3    23    1
    14    23    25    1
    15    25    26    1
    16    26    27    1
    17    27    28    1
    18    28    29    1
    19    29    30    1
    20    30    31    1
    21    31    32    1
    22     3     4   ar
    23     4     5   ar
    24     5     6   ar
    25     6     7   ar
    26     7     8   ar
    27     8     9    1
    28     8    10   ar
    29    10    11   ar
    30    22    18    1
    31    11     1   ar
    32    32    27    1
    33    11     5   ar
    34    14    15    1
    35    23    24    1
@<TRIPOS>MOLECULE
*****
 32 35 0 0 0
SMALL
GASTEIGER

@<TRIPOS>ATOM
      1 C         141.0329  141.8384  165.2097 C.ar    1  UNL1        0.0576
      2 C         140.8391  140.7720  164.1728 C.ar    1  UNL1        0.0386
      3 C         140.1991  139.4684  164.5482 C.ar    1  UNL1        0.1286
      4 N         139.7529  139.2311  165.9604 N.ar    1  UNL1       -0.2309
      5 C         139.9466  140.2975  166.9974 C.ar    1  UNL1        0.0829
      6 C         139.5003  140.0602  168.4097 C.ar    1  UNL1        0.0200
      7 C         139.6940  141.1266  169.4466 C.ar    1  UNL1        0.0129
      8 C         140.3340  142.4303  169.0713 C.ar    1  UNL1        0.0578
      9 CL        140.5278  143.4967  170.1083 Cl      1  UNL1       -0.0822
     10 C         140.7803  142.6675  167.6590 C.ar    1  UNL1        0.0130
     11 C         140.5866  141.6012  166.6221 C.ar    1  UNL1        0.0230
     12 O         140.8186  144.3379  164.5339 O.2     1  UNL1       -0.2701
     13 C         141.6729  143.1421  164.8344 C.2     1  UNL1        0.2460
     14 N         143.1671  143.2499  164.7596 N.am    1  UNL1       -0.2994
     15 H         143.7278  142.4651  164.9568 H       1  UNL1        0.1498
     16 C         143.8071  144.5536  164.3843 C.3     1  UNL1        0.1070
     17 C         144.0118  144.9000  162.9392 C.3     1  UNL1        0.0936
     18 N         143.5635  143.9491  161.8692 N.3     1  UNL1       -0.2712
     19 C         144.3902  142.8574  161.2570 C.3     1  UNL1        0.0722
     20 C         143.5475  142.1565  160.2330 C.3     1  UNL1        0.0188
     21 C         142.1999  142.8150  160.2124 C.3     1  UNL1        0.0188
     22 C         142.2098  143.9229  161.2236 C.3     1  UNL1        0.0722
     23 N         140.0054  138.4019  163.5112 N.pl3   1  UNL1       -0.3181
     24 H         140.7855  137.9347  163.1339 H       1  UNL1        0.1482
     25 C         138.6232  138.0474  163.0491 C.3     1  UNL1        0.0882
     26 C         138.0276  138.7441  161.8617 C.3     1  UNL1        0.0214
     27 C         138.0030  140.2430  161.8060 C.3     1  UNL1        0.0067
     28 C         138.4969  140.9561  160.5823 C.3     1  UNL1        0.0322
     29 C         138.4724  142.4549  160.5265 C.3     1  UNL1        0.1422
     30 O         137.9540  143.2404  161.6945 O.3     1  UNL1       -0.3538
     31 C         137.4601  142.5272  162.9182 C.3     1  UNL1        0.1422
     32 C         137.4847  141.0285  162.9740 C.3     1  UNL1        0.0322
@<TRIPOS>BOND
     1    12    13    2
     2    13    14   am
     3    14    16    1
     4    16    17    1
     5    17    18    1
     6    18    19    1
     7    19    20    1
     8    20    21    1
     9    21    22    1
    10    13     1    1
    11     1     2   ar
    12     2     3   ar
    13     3    23    1
    14    23    25    1
    15    25    26    1
    16    26    27    1
    17    27    28    1
    18    28    29    1
    19    29    30    1
    20    30    31    1
    21    31    32    1
    22     3     4   ar
    23     4     5   ar
    24     5     6   ar
    25     6     7   ar
    26     7     8   ar
    27     8     9    1
    28     8    10   ar
    29    10    11   ar
    30    22    18    1
    31    11     1   ar
    32    32    27    1
    33    11     5   ar
    34    14    15    1
    35    23    24    1
@<TRIPOS>MOLECULE
*****
 32 35 0 0 0
SMALL
GASTEIGER

@<TRIPOS>ATOM
      1 C         140.7497  141.1726  165.1156 C.ar    1  UNL1        0.0576
      2 C         141.8228  140.9932  164.0831 C.ar    1  UNL1        0.0386
      3 C         143.1126  140.3214  164.4507 C.ar    1  UNL1        0.1286
      4 N         143.3292  139.8290  165.8509 N.ar    1  UNL1       -0.2309
      5 C         142.2561  140.0083  166.8835 C.ar    1  UNL1        0.0829
      6 C         142.4728  139.5159  168.2837 C.ar    1  UNL1        0.0200
      7 C         141.3997  139.6953  169.3162 C.ar    1  UNL1        0.0129
      8 C         140.1099  140.3671  168.9486 C.ar    1  UNL1        0.0578
      9 CL        139.0367  140.5464  169.9812 Cl      1  UNL1       -0.0822
     10 C         139.8932  140.8595  167.5484 C.ar    1  UNL1        0.0130
     11 C         140.9663  140.6801  166.5159 C.ar    1  UNL1        0.0230
     12 O         138.3219  141.0347  164.2007 O.2     1  UNL1       -0.2701
     13 C         139.4599  141.8444  164.7480 C.2     1  UNL1        0.2460
     14 N         139.3081  143.3258  164.9276 N.am    1  UNL1       -0.2994
     15 H         140.0550  143.8572  165.2868 H       1  UNL1        0.1498
     16 C         138.0183  143.9976  164.5600 C.3     1  UNL1        0.1070
     17 C         137.6902  144.2537  163.1189 C.3     1  UNL1        0.0936
     18 N         138.7937  144.4479  162.1215 N.3     1  UNL1       -0.2712
     19 C         139.5822  145.7068  161.9130 C.3     1  UNL1        0.0722
     20 C         140.5782  145.4542  160.8202 C.3     1  UNL1        0.0188
     21 C         140.4053  144.0392  160.3534 C.3     1  UNL1        0.0188
     22 C         139.3024  143.4172  161.1576 C.3     1  UNL1        0.0722
     23 N         144.1857  140.1420  163.4181 N.pl3   1  UNL1       -0.3181
     24 H         145.0868  140.5057  163.5763 H       1  UNL1        0.1482
     25 C         143.8859  139.4087  162.1444 C.3     1  UNL1        0.0882
     26 C         143.1910  138.0802  162.1897 C.3     1  UNL1        0.0214
     27 C         141.6945  138.0134  162.1104 C.3     1  UNL1        0.0067
     28 C         140.8992  137.5722  163.3031 C.3     1  UNL1        0.0322
     29 C         139.4028  137.5054  163.2238 C.3     1  UNL1        0.1422
     30 O         138.7018  137.8799  161.9517 O.3     1  UNL1       -0.3538
     31 C         139.4971  138.3211  160.7589 C.3     1  UNL1        0.1422
     32 C         140.9935  138.3879  160.8382 C.3     1  UNL1        0.0322
@<TRIPOS>BOND
     1    12    13    2
     2    13    14   am
     3    14    16    1
     4    16    17    1
     5    17    18    1
     6    18    19    1
     7    19    20    1
     8    20    21    1
     9    21    22    1
    10    13     1    1
    11     1     2   ar
    12     2     3   ar
    13     3    23    1
    14    23    25    1
    15    25    26    1
    16    26    27    1
    17    27    28    1
    18    28    29    1
    19    29    30    1
    20    30    31    1
    21    31    32    1
    22     3     4   ar
    23     4     5   ar
    24     5     6   ar
    25     6     7   ar
    26     7     8   ar
    27     8     9    1
    28     8    10   ar
    29    10    11   ar
    30    22    18    1
    31    11     1   ar
    32    32    27    1
    33    11     5   ar
    34    14    15    1
    35    23    24    1
@<TRIPOS>MOLECULE
*****
 32 35 0 0 0
SMALL
GASTEIGER

@<TRIPOS>ATOM
      1 C         142.5795  139.4030  165.2003 C.ar    1  UNL1        0.0576
      2 C         141.8124  138.4368  164.3470 C.ar    1  UNL1        0.0386
      3 C         141.4559  138.8013  162.9363 C.ar    1  UNL1        0.1286
      4 N         141.8664  140.1320  162.3790 N.ar    1  UNL1       -0.2309
      5 C         142.6335  141.0983  163.2323 C.ar    1  UNL1        0.0829
      6 C         143.0440  142.4289  162.6749 C.ar    1  UNL1        0.0200
      7 C         143.8111  143.3951  163.5282 C.ar    1  UNL1        0.0129
      8 C         144.1676  143.0305  164.9389 C.ar    1  UNL1        0.0578
      9 CL        144.9347  143.9968  165.7922 Cl      1  UNL1       -0.0822
     10 C         143.7571  141.6999  165.4963 C.ar    1  UNL1        0.0130
     11 C         142.9900  140.7337  164.6430 C.ar    1  UNL1        0.0230
     12 O         144.0383  138.0562  166.8761 O.2     1  UNL1       -0.2701
     13 C         142.9360  139.0384  166.6110 C.2     1  UNL1        0.2460
     14 N         142.1902  139.6560  167.7566 N.am    1  UNL1       -0.2994
     15 H         141.4667  140.3006  167.5826 H       1  UNL1        0.1498
     16 C         142.5467  139.2915  169.1672 C.3     1  UNL1        0.1070
     17 C         142.6969  140.3650  170.2042 C.3     1  UNL1        0.0936
     18 N         141.7483  141.5268  170.2237 N.3     1  UNL1       -0.2712
     19 C         140.3525  141.5163  170.7728 C.3     1  UNL1        0.0722
     20 C         139.7705  142.8861  170.5860 C.3     1  UNL1        0.0188
     21 C         140.8067  143.7432  169.9214 C.3     1  UNL1        0.0188
     22 C         142.0291  142.9032  169.6974 C.3     1  UNL1        0.0722
     23 N         140.6888  137.8351  162.0830 N.pl3   1  UNL1       -0.3181
     24 H         141.1694  137.1715  161.5371 H       1  UNL1        0.1482
     25 C         139.1897  137.8799  162.0615 C.3     1  UNL1        0.0882
     26 C         138.4463  138.6270  163.1288 C.3     1  UNL1        0.0214
     27 C         138.2409  140.1076  163.0035 C.3     1  UNL1        0.0067
     28 C         138.2497  140.7541  161.6500 C.3     1  UNL1        0.0322
     29 C         138.0443  142.2346  161.5246 C.3     1  UNL1        0.1422
     30 O         137.8300  143.0687  162.7528 O.3     1  UNL1       -0.3538
     31 C         137.8212  142.4222  164.1063 C.3     1  UNL1        0.1422
     32 C         138.0267  140.9417  164.2316 C.3     1  UNL1        0.0322
@<TRIPOS>BOND
     1    12    13    2
     2    13    14   am
     3    14    16    1
     4    16    17    1
     5    17    18    1
     6    18    19    1
     7    19    20    1
     8    20    21    1
     9    21    22    1
    10    13     1    1
    11     1     2   ar
    12     2     3   ar
    13     3    23    1
    14    23    25    1
    15    25    26    1
    16    26    27    1
    17    27    28    1
    18    28    29    1
    19    29    30    1
    20    30    31    1
    21    31    32    1
    22     3     4   ar
    23     4     5   ar
    24     5     6   ar
    25     6     7   ar
    26     7     8   ar
    27     8     9    1
    28     8    10   ar
    29    10    11   ar
    30    22    18    1
    31    11     1   ar
    32    32    27    1
    33    11     5   ar
    34    14    15    1
    35    23    24    1
@<TRIPOS>MOLECULE
*****
 32 35 0 0 0
SMALL
GASTEIGER

@<TRIPOS>ATOM
      1 C         138.8928  140.3193  161.2595 C.ar    1  UNL1        0.0576
      2 C         138.5076  141.4712  162.1397 C.ar    1  UNL1        0.0386
      3 C         138.1166  142.7841  161.5285 C.ar    1  UNL1        0.1286
      4 N         138.1109  142.9450  160.0372 N.ar    1  UNL1       -0.2309
      5 C         138.4961  141.7931  159.1570 C.ar    1  UNL1        0.0829
      6 C         138.4903  141.9540  157.6657 C.ar    1  UNL1        0.0200
      7 C         138.8755  140.8021  156.7856 C.ar    1  UNL1        0.0129
      8 C         139.2665  139.4892  157.3967 C.ar    1  UNL1        0.0578
      9 CL        139.6517  138.3373  156.5165 Cl      1  UNL1       -0.0822
     10 C         139.2723  139.3283  158.8880 C.ar    1  UNL1        0.0130
     11 C         138.8871  140.4802  159.7682 C.ar    1  UNL1        0.0230
     12 O         138.2495  137.9415  162.0857 O.2     1  UNL1       -0.2701
     13 C         139.2838  139.0065  161.8707 C.2     1  UNL1        0.2460
     14 N         140.7091  138.7585  162.2670 N.am    1  UNL1       -0.2994
     15 H         141.3880  139.4574  162.1259 H       1  UNL1        0.1498
     16 C         141.1001  137.4456  162.8781 C.3     1  UNL1        0.1070
     17 C         140.9718  137.2396  164.3584 C.3     1  UNL1        0.0936
     18 N         140.1129  138.1616  165.1723 N.3     1  UNL1       -0.2712
     19 C         140.5435  139.4667  165.7733 C.3     1  UNL1        0.0722
     20 C         139.3693  140.0520  166.5005 C.3     1  UNL1        0.0188
     21 C         138.2130  139.1086  166.3488 C.3     1  UNL1        0.0188
     22 C         138.6725  137.9402  165.5279 C.3     1  UNL1        0.0722
     23 N         137.7314  143.9360  162.4087 N.pl3   1  UNL1       -0.3181
     24 H         136.7886  144.0714  162.6578 H       1  UNL1        0.1482
     25 C         138.7826  144.8817  162.9093 C.3     1  UNL1        0.0882
     26 C         139.4186  144.6551  164.2488 C.3     1  UNL1        0.0214
     27 C         140.8844  144.3502  164.3412 C.3     1  UNL1        0.0067
     28 C         141.3469  143.0825  164.9963 C.3     1  UNL1        0.0322
     29 C         142.8126  142.7775  165.0887 C.3     1  UNL1        0.1422
     30 O         143.8158  143.7401  164.5260 O.3     1  UNL1       -0.3538
     31 C         143.3534  145.0078  163.8708 C.3     1  UNL1        0.1422
     32 C         141.8877  145.3128  163.7784 C.3     1  UNL1        0.0322
@<TRIPOS>BOND
     1    12    13    2
     2    13    14   am
     3    14    16    1
     4    16    17    1
     5    17    18    1
     6    18    19    1
     7    19    20    1
     8    20    21    1
     9    21    22    1
    10    13     1    1
    11     1     2   ar
    12     2     3   ar
    13     3    23    1
    14    23    25    1
    15    25    26    1
    16    26    27    1
    17    27    28    1
    18    28    29    1
    19    29    30    1
    20    30    31    1
    21    31    32    1
    22     3     4   ar
    23     4     5   ar
    24     5     6   ar
    25     6     7   ar
    26     7     8   ar
    27     8     9    1
    28     8    10   ar
    29    10    11   ar
    30    22    18    1
    31    11     1   ar
    32    32    27    1
    33    11     5   ar
    34    14    15    1
    35    23    24    1
@<TRIPOS>MOLECULE
*****
 32 35 0 0 0
SMALL
GASTEIGER

@<TRIPOS>ATOM
      1 C         140.8616  140.2907  165.3491 C.ar    1  UNL1        0.0576
      2 C         140.1585  139.2187  164.5704 C.ar    1  UNL1        0.0386
      3 C         140.7054  138.7718  163.2471 C.ar    1  UNL1        0.1286
      4 N         141.9555  139.3969  162.7025 N.ar    1  UNL1       -0.2309
      5 C         142.6586  140.4690  163.4812 C.ar    1  UNL1        0.0829
      6 C         143.9087  141.0941  162.9366 C.ar    1  UNL1        0.0200
      7 C         144.6118  142.1660  163.7153 C.ar    1  UNL1        0.0129
      8 C         144.0649  142.6129  165.0386 C.ar    1  UNL1        0.0578
      9 CL        144.7680  143.6850  165.8173 Cl      1  UNL1       -0.0822
     10 C         142.8148  141.9878  165.5832 C.ar    1  UNL1        0.0130
     11 C         142.1117  140.9158  164.8045 C.ar    1  UNL1        0.0230
     12 O         140.1705  142.2009  166.9688 O.2     1  UNL1       -0.2701
     13 C         140.3147  140.7375  166.6724 C.2     1  UNL1        0.2460
     14 N         139.9120  139.7211  167.6994 N.am    1  UNL1       -0.2994
     15 H         140.0067  138.7607  167.5049 H       1  UNL1        0.1498
     16 C         139.3651  140.1680  169.0227 C.3     1  UNL1        0.1070
     17 C         140.2753  140.2855  170.2093 C.3     1  UNL1        0.0936
     18 N         141.4573  141.2075  170.1594 N.3     1  UNL1       -0.2712
     19 C         141.4870  142.6296  170.6357 C.3     1  UNL1        0.0722
     20 C         142.8653  143.1704  170.3952 C.3     1  UNL1        0.0188
     21 C         143.6875  142.0825  169.7703 C.3     1  UNL1        0.0188
     22 C         142.8174  140.8694  169.6246 C.3     1  UNL1        0.0722
     23 N         140.0023  137.6998  162.4683 N.pl3   1  UNL1       -0.3181
     24 H         140.1834  136.7516  162.6619 H       1  UNL1        0.1482
     25 C         139.0232  138.0723  161.3948 C.3     1  UNL1        0.0882
     26 C         137.8047  138.8773  161.7376 C.3     1  UNL1        0.0214
     27 C         137.8730  140.3758  161.7435 C.3     1  UNL1        0.0067
     28 C         138.3321  141.1104  160.5189 C.3     1  UNL1        0.0322
     29 C         138.4004  142.6088  160.5248 C.3     1  UNL1        0.1422
     30 O         138.0095  143.3726  161.7551 O.3     1  UNL1       -0.3538
     31 C         137.5504  142.6379  162.9797 C.3     1  UNL1        0.1422
     32 C         137.4821  141.1395  162.9738 C.3     1  UNL1        0.0322
@<TRIPOS>BOND
     1    12    13    2
     2    13    14   am
     3    14    16    1
     4    16    17    1
     5    17    18    1
     6    18    19    1
     7    19    20    1
     8    20    21    1
     9    21    22    1
    10    13     1    1
    11     1     2   ar
    12     2     3   ar
    13     3    23    1
    14    23    25    1
    15    25    26    1
    16    26    27    1
    17    27    28    1
    18    28    29    1
    19    29    30    1
    20    30    31    1
    21    31    32    1
    22     3     4   ar
    23     4     5   ar
    24     5     6   ar
    25     6     7   ar
    26     7     8   ar
    27     8     9    1
    28     8    10   ar
    29    10    11   ar
    30    22    18    1
    31    11     1   ar
    32    32    27    1
    33    11     5   ar
    34    14    15    1
    35    23    24    1
@<TRIPOS>MOLECULE
*****
 32 35 0 0 0
SMALL
GASTEIGER

@<TRIPOS>ATOM
      1 C         142.1467  143.7146  161.3088 C.ar    1  UNL1        0.0576
      2 C         141.3645  144.2037  162.4916 C.ar    1  UNL1        0.0386
      3 C         140.2312  145.1665  162.2951 C.ar    1  UNL1        0.1286
      4 N         139.8802  145.6403  160.9159 N.ar    1  UNL1       -0.2309
      5 C         140.6624  145.1513  159.7331 C.ar    1  UNL1        0.0829
      6 C         140.3113  145.6251  158.3539 C.ar    1  UNL1        0.0200
      7 C         141.0935  145.1360  157.1711 C.ar    1  UNL1        0.0129
      8 C         142.2268  144.1732  157.3676 C.ar    1  UNL1        0.0578
      9 CL        143.0091  143.6841  156.1847 Cl      1  UNL1       -0.0822
     10 C         142.5779  143.6994  158.7468 C.ar    1  UNL1        0.0130
     11 C         141.7957  144.1884  159.9295 C.ar    1  UNL1        0.0230
     12 O         144.6622  143.2661  161.7795 O.2     1  UNL1       -0.2701
     13 C         143.2800  142.7518  161.5052 C.2     1  UNL1        0.2460
     14 N         143.0312  141.2746  161.4275 N.am    1  UNL1       -0.2994
     15 H         142.1241  140.9371  161.2475 H       1  UNL1        0.1498
     16 C         144.1645  140.3118  161.6239 C.3     1  UNL1        0.1070
     17 C         143.8850  138.8463  161.7800 C.3     1  UNL1        0.0936
     18 N         142.9126  138.3749  162.8203 N.3     1  UNL1       -0.2712
     19 C         141.6632  137.5848  162.5657 C.3     1  UNL1        0.0722
     20 C         140.9972  137.3324  163.8858 C.3     1  UNL1        0.0188
     21 C         141.8350  137.9665  164.9563 C.3     1  UNL1        0.0188
     22 C         143.0188  138.6108  164.2978 C.3     1  UNL1        0.0722
     23 N         139.4490  145.6555  163.4779 N.pl3   1  UNL1       -0.3181
     24 H         139.1216  146.5837  163.5019 H       1  UNL1        0.1482
     25 C         139.1657  144.7305  164.6242 C.3     1  UNL1        0.0882
     26 C         137.9290  143.8817  164.6149 C.3     1  UNL1        0.0214
     27 C         137.9715  142.5006  164.0309 C.3     1  UNL1        0.0067
     28 C         138.3111  141.3280  164.9024 C.3     1  UNL1        0.0322
     29 C         138.3537  139.9470  164.3185 C.3     1  UNL1        0.1422
     30 O         138.0566  139.7386  162.8631 O.3     1  UNL1       -0.3538
     31 C         137.7170  140.9113  161.9916 C.3     1  UNL1        0.1422
     32 C         137.6745  142.2923  162.5755 C.3     1  UNL1        0.0322
@<TRIPOS>BOND
     1    12    13    2
     2    13    14   am
     3    14    16    1
     4    16    17    1
     5    17    18    1
     6    18    19    1
     7    19    20    1
     8    20    21    1
     9    21    22    1
    10    13     1    1
    11     1     2   ar
    12     2     3   ar
    13     3    23    1
    14    23    25    1
    15    25    26    1
    16    26    27    1
    17    27    28    1
    18    28    29    1
    19    29    30    1
    20    30    31    1
    21    31    32    1
    22     3     4   ar
    23     4     5   ar
    24     5     6   ar
    25     6     7   ar
    26     7     8   ar
    27     8     9    1
    28     8    10   ar
    29    10    11   ar
    30    22    18    1
    31    11     1   ar
    32    32    27    1
    33    11     5   ar
    34    14    15    1
    35    23    24    1
@<TRIPOS>MOLECULE
*****
 32 35 0 0 0
SMALL
GASTEIGER

@<TRIPOS>ATOM
      1 C         141.2433  141.5382  163.6645 C.ar    1  UNL1        0.0576
      2 C         141.5829  140.7090  162.4616 C.ar    1  UNL1        0.0386
      3 C         140.7737  140.8428  161.2057 C.ar    1  UNL1        0.1286
      4 N         139.6250  141.8058  161.1527 N.ar    1  UNL1       -0.2309
      5 C         139.2853  142.6351  162.3557 C.ar    1  UNL1        0.0829
      6 C         138.1365  143.5982  162.3027 C.ar    1  UNL1        0.0200
      7 C         137.7970  144.4274  163.5056 C.ar    1  UNL1        0.0129
      8 C         138.6061  144.2935  164.7615 C.ar    1  UNL1        0.0578
      9 CL        138.2665  145.1228  165.9644 Cl      1  UNL1       -0.0822
     10 C         139.7549  143.3305  164.8145 C.ar    1  UNL1        0.0130
     11 C         140.0945  142.5013  163.6116 C.ar    1  UNL1        0.0230
     12 O         143.1619  142.3732  165.2047 O.2     1  UNL1       -0.2701
     13 C         142.0525  141.4044  164.9204 C.2     1  UNL1        0.2460
     14 N         141.7523  140.3018  165.8921 N.am    1  UNL1       -0.2994
     15 H         141.0242  139.6660  165.7056 H       1  UNL1        0.1498
     16 C         142.5615  140.1680  167.1480 C.3     1  UNL1        0.1070
     17 C         141.8724  140.0479  168.4750 C.3     1  UNL1        0.0936
     18 N         141.3000  141.2667  169.1359 N.3     1  UNL1       -0.2712
     19 C         140.0099  141.3326  169.8983 C.3     1  UNL1        0.0722
     20 C         139.8298  142.7403  170.3841 C.3     1  UNL1        0.0188
     21 C         141.0087  143.5445  169.9219 C.3     1  UNL1        0.0188
     22 C         141.9174  142.6338  169.1505 C.3     1  UNL1        0.0722
     23 N         141.1134  140.0135  160.0028 N.pl3   1  UNL1       -0.3181
     24 H         141.6423  140.4033  159.2696 H       1  UNL1        0.1482
     25 C         140.6472  138.5904  159.9169 C.3     1  UNL1        0.0882
     26 C         139.4988  138.1252  160.7623 C.3     1  UNL1        0.0214
     27 C         139.6612  138.0074  162.2489 C.3     1  UNL1        0.0067
     28 C         138.5997  138.5419  163.1640 C.3     1  UNL1        0.0322
     29 C         138.7620  138.4241  164.6505 C.3     1  UNL1        0.1422
     30 O         139.9859  137.7718  165.2219 O.3     1  UNL1       -0.3538
     31 C         141.0475  137.2373  164.3068 C.3     1  UNL1        0.1422
     32 C         140.8851  137.3551  162.8203 C.3     1  UNL1        0.0322
@<TRIPOS>BOND
     1    12    13    2
     2    13    14   am
     3    14    16    1
     4    16    17    1
     5    17    18    1
     6    18    19    1
     7    19    20    1
     8    20    21    1
     9    21    22    1
    10    13     1    1
    11     1     2   ar
    12     2     3   ar
    13     3    23    1
    14    23    25    1
    15    25    26    1
    16    26    27    1
    17    27    28    1
    18    28    29    1
    19    29    30    1
    20    30    31    1
    21    31    32    1
    22     3     4   ar
    23     4     5   ar
    24     5     6   ar
    25     6     7   ar
    26     7     8   ar
    27     8     9    1
    28     8    10   ar
    29    10    11   ar
    30    22    18    1
    31    11     1   ar
    32    32    27    1
    33    11     5   ar
    34    14    15    1
    35    23    24    1
