@<TRIPOS>MOLECULE
*****
 29 32 0 0 0
SMALL
GASTEIGER

@<TRIPOS>ATOM
      1 N         141.7882  138.4241  162.6615 N.am    1  UNL1       -0.2602
      2 C         140.6759  138.1143  161.7040 C.3     1  UNL1        0.1167
      3 C         139.4661  137.7353  162.5058 C.3     1  UNL1        0.1165
      4 N         139.8308  137.8109  163.9589 N.am    1  UNL1       -0.2609
      5 C         141.2659  138.2366  164.0550 C.2     1  UNL1        0.3075
      6 O         142.0424  138.4392  165.3223 O.2     1  UNL1       -0.2523
      7 C         144.0464  137.9369  161.4728 C.3     1  UNL1        0.0265
      8 C         143.1786  138.8470  162.2905 C.3     1  UNL1        0.0994
      9 C         143.7013  140.1802  162.7372 C.ar    1  UNL1       -0.0043
     10 C         145.0046  140.2660  163.4747 C.ar    1  UNL1       -0.0027
     11 C         145.5273  141.5992  163.9214 C.ar    1  UNL1       -0.0003
     12 C         144.7466  142.8466  163.6306 C.ar    1  UNL1        0.0038
     13 C         143.4433  142.7607  162.8931 C.ar    1  UNL1        0.0712
     14 C         142.9206  141.4276  162.4464 C.ar    1  UNL1        0.0012
     15 C         142.6626  144.0081  162.6022 C.3     1  UNL1        0.4186
     16 F         141.8819  145.2556  162.3114 F       1  UNL1       -0.1659
     17 F         141.4251  143.1857  162.3967 F       1  UNL1       -0.1659
     18 F         143.9001  144.8305  162.8078 F       1  UNL1       -0.1659
     19 C         138.9202  137.5131  165.1131 C.3     1  UNL1        0.1123
     20 C         138.3898  138.6330  165.9583 C.3     1  UNL1        0.0944
     21 N         138.5312  140.0531  165.4964 N.3     1  UNL1       -0.2637
     22 C         137.7842  140.6899  164.3621 C.3     1  UNL1        0.0992
     23 C         138.2357  142.1161  164.2523 C.ar    1  UNL1       -0.0088
     24 C         137.8451  143.2235  163.3191 C.ar    1  UNL1       -0.0032
     25 C         138.4805  144.5757  163.4523 C.ar    1  UNL1       -0.0003
     26 C         139.5065  144.8205  164.5188 C.ar    1  UNL1       -0.0003
     27 C         139.8971  143.7130  165.4521 C.ar    1  UNL1       -0.0032
     28 C         139.2617  142.3609  165.3188 C.ar    1  UNL1       -0.0088
     29 C         139.4443  141.0859  166.0877 C.3     1  UNL1        0.0992
@<TRIPOS>BOND
     1     7     8    1
     2     8     9    1
     3     9    10   ar
     4    10    11   ar
     5    11    12   ar
     6    12    13   ar
     7    13    15    1
     8    15    16    1
     9    15    17    1
    10    15    18    1
    11    13    14   ar
    12     8     1    1
    13     1     2    1
    14     2     3    1
    15     3     4    1
    16     4    19    1
    17    19    20    1
    18    20    21    1
    19    21    22    1
    20    22    23    1
    21    23    24   ar
    22    24    25   ar
    23    25    26   ar
    24    26    27   ar
    25    27    28   ar
    26    28    29    1
    27     4     5   am
    28     5     6    2
    29    14     9   ar
    30     5     1   am
    31    29    21    1
    32    28    23   ar
@<TRIPOS>MOLECULE
*****
 29 32 0 0 0
SMALL
GASTEIGER

@<TRIPOS>ATOM
      1 N         141.4951  138.8646  165.0330 N.am    1  UNL1       -0.2602
      2 C         140.3252  139.0341  165.9563 C.3     1  UNL1        0.1167
      3 C         139.0852  138.6370  165.2112 C.3     1  UNL1        0.1165
      4 N         139.4890  138.2222  163.8274 N.am    1  UNL1       -0.2609
      5 C         140.9783  138.3628  163.7172 C.2     1  UNL1        0.3075
      6 O         141.8056  138.0556  162.5043 O.2     1  UNL1       -0.2523
      7 C         143.6928  138.2078  166.2530 C.3     1  UNL1        0.0265
      8 C         142.9298  139.1472  165.3668 C.3     1  UNL1        0.0994
      9 C         143.6016  140.3693  164.8144 C.ar    1  UNL1       -0.0043
     10 C         145.0062  140.2830  164.2949 C.ar    1  UNL1       -0.0027
     11 C         145.6780  141.5051  163.7425 C.ar    1  UNL1       -0.0003
     12 C         144.9453  142.8136  163.7096 C.ar    1  UNL1        0.0038
     13 C         143.5407  142.8999  164.2291 C.ar    1  UNL1        0.0712
     14 C         142.8689  141.6778  164.7815 C.ar    1  UNL1        0.0012
     15 C         142.8080  144.2083  164.1962 C.3     1  UNL1        0.4186
     16 F         142.0753  145.5168  164.1633 F       1  UNL1       -0.1659
     17 F         144.1115  144.9344  164.0419 F       1  UNL1       -0.1659
     18 F         141.5046  143.4823  164.3504 F       1  UNL1       -0.1659
     19 C         138.5654  137.7497  162.7439 C.3     1  UNL1        0.1123
     20 C         137.8618  138.7459  161.8709 C.3     1  UNL1        0.0944
     21 N         138.2029  140.2032  161.9703 N.3     1  UNL1       -0.2637
     22 C         139.3247  140.8969  161.2558 C.3     1  UNL1        0.0992
     23 C         139.2973  142.3451  161.6456 C.ar    1  UNL1       -0.0088
     24 C         140.1620  143.5065  161.2540 C.ar    1  UNL1       -0.0032
     25 C         139.8881  144.8692  161.8178 C.ar    1  UNL1       -0.0003
     26 C         138.7494  145.0706  162.7732 C.ar    1  UNL1       -0.0003
     27 C         137.8846  143.9092  163.1648 C.ar    1  UNL1       -0.0032
     28 C         138.1586  142.5465  162.6010 C.ar    1  UNL1       -0.0088
     29 C         137.4822  141.2227  162.8017 C.3     1  UNL1        0.0992
@<TRIPOS>BOND
     1     7     8    1
     2     8     9    1
     3     9    10   ar
     4    10    11   ar
     5    11    12   ar
     6    12    13   ar
     7    13    15    1
     8    15    16    1
     9    15    17    1
    10    15    18    1
    11    13    14   ar
    12     8     1    1
    13     1     2    1
    14     2     3    1
    15     3     4    1
    16     4    19    1
    17    19    20    1
    18    20    21    1
    19    21    22    1
    20    22    23    1
    21    23    24   ar
    22    24    25   ar
    23    25    26   ar
    24    26    27   ar
    25    27    28   ar
    26    28    29    1
    27     4     5   am
    28     5     6    2
    29    14     9   ar
    30     5     1   am
    31    29    21    1
    32    28    23   ar
@<TRIPOS>MOLECULE
*****
 29 32 0 0 0
SMALL
GASTEIGER

@<TRIPOS>ATOM
      1 N         143.9333  140.1919  164.9489 N.am    1  UNL1       -0.2602
      2 C         145.1383  140.3361  164.0674 C.3     1  UNL1        0.1167
      3 C         145.3925  141.8006  163.8655 C.3     1  UNL1        0.1165
      4 N         144.3444  142.5615  164.6224 N.am    1  UNL1       -0.2609
      5 C         143.4427  141.5672  165.2919 C.2     1  UNL1        0.3075
      6 O         142.2582  141.8914  166.1533 O.2     1  UNL1       -0.2523
      7 C         144.0724  138.0166  166.3627 C.3     1  UNL1        0.0265
      8 C         143.3257  138.8993  165.4070 C.3     1  UNL1        0.0994
      9 C         141.9714  138.4893  164.9093 C.ar    1  UNL1       -0.0043
     10 C         141.8252  137.8857  163.5438 C.ar    1  UNL1       -0.0027
     11 C         140.4708  137.4757  163.0461 C.ar    1  UNL1       -0.0003
     12 C         139.2627  137.6692  163.9139 C.ar    1  UNL1        0.0038
     13 C         139.4089  138.2728  165.2793 C.ar    1  UNL1        0.0712
     14 C         140.7633  138.6828  165.7770 C.ar    1  UNL1        0.0012
     15 C         138.2008  138.4663  166.1470 C.3     1  UNL1        0.4186
     16 F         136.9926  138.6598  167.0148 F       1  UNL1       -0.1659
     17 F         138.3300  139.9530  165.9953 F       1  UNL1       -0.1659
     18 F         138.0716  136.9796  166.2987 F       1  UNL1       -0.1659
     19 C         144.2200  144.0545  164.6967 C.3     1  UNL1        0.1123
     20 C         143.1043  144.7509  163.9755 C.3     1  UNL1        0.0944
     21 N         141.8164  144.0289  163.7108 N.3     1  UNL1       -0.2637
     22 C         141.5808  143.0124  162.6332 C.3     1  UNL1        0.0992
     23 C         140.1568  142.5519  162.7336 C.ar    1  UNL1       -0.0088
     24 C         139.3637  141.5607  161.9346 C.ar    1  UNL1       -0.0032
     25 C         137.9261  141.3015  162.2752 C.ar    1  UNL1       -0.0003
     26 C         137.2816  142.0334  163.4149 C.ar    1  UNL1       -0.0003
     27 C         138.0746  143.0246  164.2139 C.ar    1  UNL1       -0.0032
     28 C         139.5122  143.2839  163.8733 C.ar    1  UNL1       -0.0088
     29 C         140.5379  144.1967  164.4772 C.3     1  UNL1        0.0992
@<TRIPOS>BOND
     1     7     8    1
     2     8     9    1
     3     9    10   ar
     4    10    11   ar
     5    11    12   ar
     6    12    13   ar
     7    13    15    1
     8    15    16    1
     9    15    17    1
    10    15    18    1
    11    13    14   ar
    12     8     1    1
    13     1     2    1
    14     2     3    1
    15     3     4    1
    16     4    19    1
    17    19    20    1
    18    20    21    1
    19    21    22    1
    20    22    23    1
    21    23    24   ar
    22    24    25   ar
    23    25    26   ar
    24    26    27   ar
    25    27    28   ar
    26    28    29    1
    27     4     5   am
    28     5     6    2
    29    14     9   ar
    30     5     1   am
    31    29    21    1
    32    28    23   ar
@<TRIPOS>MOLECULE
*****
 29 32 0 0 0
SMALL
GASTEIGER

@<TRIPOS>ATOM
      1 N         142.3852  143.5915  164.2111 N.am    1  UNL1       -0.2602
      2 C         142.6767  143.8722  162.7667 C.3     1  UNL1        0.1167
      3 C         141.4118  144.3602  162.1248 C.3     1  UNL1        0.1165
      4 N         140.3386  144.3812  163.1726 N.am    1  UNL1       -0.2609
      5 C         140.9402  143.9061  164.4620 C.2     1  UNL1        0.3075
      6 O         140.2227  143.7696  165.7722 O.2     1  UNL1       -0.2523
      7 C         144.6409  143.8355  165.4768 C.3     1  UNL1        0.0265
      8 C         143.3665  143.0852  165.2263 C.3     1  UNL1        0.0994
      9 C         143.0732  141.8285  165.9910 C.ar    1  UNL1       -0.0043
     10 C         142.8726  140.5347  165.2591 C.ar    1  UNL1       -0.0027
     11 C         142.5794  139.2780  166.0238 C.ar    1  UNL1       -0.0003
     12 C         142.4868  139.3152  167.5205 C.ar    1  UNL1        0.0038
     13 C         142.6874  140.6090  168.2524 C.ar    1  UNL1        0.0712
     14 C         142.9806  141.8657  167.4877 C.ar    1  UNL1        0.0012
     15 C         142.5948  140.6462  169.7491 C.3     1  UNL1        0.4186
     16 F         142.5021  140.6833  171.2458 F       1  UNL1       -0.1659
     17 F         143.7677  141.5798  169.7985 F       1  UNL1       -0.1659
     18 F         141.4218  139.7126  169.6997 F       1  UNL1       -0.1659
     19 C         138.9139  144.8032  162.9671 C.3     1  UNL1        0.1123
     20 C         137.8428  143.7678  162.7923 C.3     1  UNL1        0.0944
     21 N         138.0869  142.3546  163.2319 N.3     1  UNL1       -0.2637
     22 C         137.8892  141.8157  164.6178 C.3     1  UNL1        0.0992
     23 C         138.2516  140.3601  164.6052 C.ar    1  UNL1       -0.0088
     24 C         138.2522  139.3166  165.6827 C.ar    1  UNL1       -0.0032
     25 C         138.6743  137.9124  165.3666 C.ar    1  UNL1       -0.0003
     26 C         139.0960  137.5518  163.9730 C.ar    1  UNL1       -0.0003
     27 C         139.0955  138.5953  162.8955 C.ar    1  UNL1       -0.0032
     28 C         138.6733  139.9995  163.2116 C.ar    1  UNL1       -0.0088
     29 C         138.5714  141.2321  162.3629 C.3     1  UNL1        0.0992
@<TRIPOS>BOND
     1     7     8    1
     2     8     9    1
     3     9    10   ar
     4    10    11   ar
     5    11    12   ar
     6    12    13   ar
     7    13    15    1
     8    15    16    1
     9    15    17    1
    10    15    18    1
    11    13    14   ar
    12     8     1    1
    13     1     2    1
    14     2     3    1
    15     3     4    1
    16     4    19    1
    17    19    20    1
    18    20    21    1
    19    21    22    1
    20    22    23    1
    21    23    24   ar
    22    24    25   ar
    23    25    26   ar
    24    26    27   ar
    25    27    28   ar
    26    28    29    1
    27     4     5   am
    28     5     6    2
    29    14     9   ar
    30     5     1   am
    31    29    21    1
    32    28    23   ar
@<TRIPOS>MOLECULE
*****
 29 32 0 0 0
SMALL
GASTEIGER

@<TRIPOS>ATOM
      1 N         138.5777  139.5696  165.0075 N.am    1  UNL1       -0.2602
      2 C         138.0191  140.7434  164.2591 C.3     1  UNL1        0.1167
      3 C         138.2121  140.4928  162.7928 C.3     1  UNL1        0.1165
      4 N         138.8899  139.1640  162.6350 N.am    1  UNL1       -0.2609
      5 C         139.1159  138.5934  164.0037 C.2     1  UNL1        0.3075
      6 O         139.7659  137.2777  164.3143 O.2     1  UNL1       -0.2523
      7 C         137.6045  138.4913  167.1615 C.3     1  UNL1        0.0265
      8 C         138.5950  139.4015  166.4979 C.3     1  UNL1        0.0994
      9 C         139.6029  140.1436  167.3246 C.ar    1  UNL1       -0.0043
     10 C         139.4431  140.2170  168.8143 C.ar    1  UNL1       -0.0027
     11 C         140.4510  140.9591  169.6411 C.ar    1  UNL1       -0.0003
     12 C         141.6186  141.6278  168.9782 C.ar    1  UNL1        0.0038
     13 C         141.7784  141.5544  167.4885 C.ar    1  UNL1        0.0712
     14 C         140.7705  140.8123  166.6617 C.ar    1  UNL1        0.0012
     15 C         142.9460  142.2231  166.8256 C.3     1  UNL1        0.4186
     16 F         144.1137  142.8918  166.1627 F       1  UNL1       -0.1659
     17 F         143.4692  142.6402  168.1681 F       1  UNL1       -0.1659
     18 F         142.4227  141.8059  165.4832 F       1  UNL1       -0.1659
     19 C         139.2743  138.5190  161.3364 C.3     1  UNL1        0.1123
     20 C         140.7000  138.1242  161.0882 C.3     1  UNL1        0.0944
     21 N         141.8162  138.9362  161.6753 N.3     1  UNL1       -0.2637
     22 C         142.7594  138.4895  162.7527 C.3     1  UNL1        0.0992
     23 C         143.7113  139.6147  163.0313 C.ar    1  UNL1       -0.0088
     24 C         144.8554  139.7468  163.9923 C.ar    1  UNL1       -0.0032
     25 C         145.6446  141.0212  164.0481 C.ar    1  UNL1       -0.0003
     26 C         145.2898  142.1634  163.1429 C.ar    1  UNL1       -0.0003
     27 C         144.1457  142.0312  162.1818 C.ar    1  UNL1       -0.0032
     28 C         143.3565  140.7569  162.1261 C.ar    1  UNL1       -0.0088
     29 C         142.1853  140.3376  161.2880 C.3     1  UNL1        0.0992
@<TRIPOS>BOND
     1     7     8    1
     2     8     9    1
     3     9    10   ar
     4    10    11   ar
     5    11    12   ar
     6    12    13   ar
     7    13    15    1
     8    15    16    1
     9    15    17    1
    10    15    18    1
    11    13    14   ar
    12     8     1    1
    13     1     2    1
    14     2     3    1
    15     3     4    1
    16     4    19    1
    17    19    20    1
    18    20    21    1
    19    21    22    1
    20    22    23    1
    21    23    24   ar
    22    24    25   ar
    23    25    26   ar
    24    26    27   ar
    25    27    28   ar
    26    28    29    1
    27     4     5   am
    28     5     6    2
    29    14     9   ar
    30     5     1   am
    31    29    21    1
    32    28    23   ar
@<TRIPOS>MOLECULE
*****
 29 32 0 0 0
SMALL
GASTEIGER

@<TRIPOS>ATOM
      1 N         138.5235  140.8270  164.8812 N.am    1  UNL1       -0.2602
      2 C         137.8244  140.5668  163.5798 C.3     1  UNL1        0.1167
      3 C         137.7085  141.8706  162.8471 C.3     1  UNL1        0.1165
      4 N         138.3360  142.9366  163.6958 N.am    1  UNL1       -0.2609
      5 C         138.8396  142.2915  164.9529 C.2     1  UNL1        0.3075
      6 O         139.5370  142.9887  166.0832 O.2     1  UNL1       -0.2523
      7 C         137.7790  138.8817  166.4340 C.3     1  UNL1        0.0265
      8 C         138.8491  139.8025  165.9272 C.3     1  UNL1        0.0994
      9 C         140.2450  139.6987  166.4664 C.ar    1  UNL1       -0.0043
     10 C         140.4941  139.8521  167.9376 C.ar    1  UNL1       -0.0027
     11 C         141.8900  139.7483  168.4768 C.ar    1  UNL1       -0.0003
     12 C         143.0368  139.4912  167.5448 C.ar    1  UNL1        0.0038
     13 C         142.7878  139.3378  166.0736 C.ar    1  UNL1        0.0712
     14 C         141.3919  139.4416  165.5344 C.ar    1  UNL1        0.0012
     15 C         143.9346  139.0806  165.1416 C.3     1  UNL1        0.4186
     16 F         145.0815  138.8235  164.2095 F       1  UNL1       -0.1659
     17 F         144.6335  138.3021  166.2165 F       1  UNL1       -0.1659
     18 F         143.2357  139.8592  164.0668 F       1  UNL1       -0.1659
     19 C         138.4413  144.3919  163.3483 C.3     1  UNL1        0.1123
     20 C         139.6413  144.9009  162.6060 C.3     1  UNL1        0.0944
     21 N         140.9785  144.2518  162.8071 N.3     1  UNL1       -0.2637
     22 C         141.8008  144.2969  164.0608 C.3     1  UNL1        0.0992
     23 C         143.0588  143.5166  163.8184 C.ar    1  UNL1       -0.0088
     24 C         144.2393  143.2182  164.6944 C.ar    1  UNL1       -0.0032
     25 C         145.3749  142.3924  164.1668 C.ar    1  UNL1       -0.0003
     26 C         145.3301  141.8651  162.7633 C.ar    1  UNL1       -0.0003
     27 C         144.1496  142.1635  161.8873 C.ar    1  UNL1       -0.0032
     28 C         143.0140  142.9893  162.4149 C.ar    1  UNL1       -0.0088
     29 C         141.7283  143.4437  161.7899 C.3     1  UNL1        0.0992
@<TRIPOS>BOND
     1     7     8    1
     2     8     9    1
     3     9    10   ar
     4    10    11   ar
     5    11    12   ar
     6    12    13   ar
     7    13    15    1
     8    15    16    1
     9    15    17    1
    10    15    18    1
    11    13    14   ar
    12     8     1    1
    13     1     2    1
    14     2     3    1
    15     3     4    1
    16     4    19    1
    17    19    20    1
    18    20    21    1
    19    21    22    1
    20    22    23    1
    21    23    24   ar
    22    24    25   ar
    23    25    26   ar
    24    26    27   ar
    25    27    28   ar
    26    28    29    1
    27     4     5   am
    28     5     6    2
    29    14     9   ar
    30     5     1   am
    31    29    21    1
    32    28    23   ar
@<TRIPOS>MOLECULE
*****
 29 32 0 0 0
SMALL
GASTEIGER

@<TRIPOS>ATOM
      1 N         141.7231  139.1125  163.9190 N.am    1  UNL1       -0.2602
      2 C         142.3317  138.3322  162.7917 C.3     1  UNL1        0.1167
      3 C         143.7841  138.6973  162.7062 C.3     1  UNL1        0.1165
      4 N         144.0731  139.7033  163.7807 N.am    1  UNL1       -0.2609
      5 C         142.7993  139.9599  164.5302 C.2     1  UNL1        0.3075
      6 O         142.6313  140.8991  165.6876 O.2     1  UNL1       -0.2523
      7 C         139.7942  137.8818  165.1496 C.3     1  UNL1        0.0265
      8 C         140.2899  139.0554  164.3579 C.3     1  UNL1        0.0994
      9 C         139.3524  140.1719  164.0050 C.ar    1  UNL1       -0.0043
     10 C         138.3031  139.9661  162.9531 C.ar    1  UNL1       -0.0027
     11 C         137.3656  141.0826  162.6002 C.ar    1  UNL1       -0.0003
     12 C         137.4775  142.4050  163.2992 C.ar    1  UNL1        0.0038
     13 C         138.5268  142.6109  164.3511 C.ar    1  UNL1        0.0712
     14 C         139.4643  141.4944  164.7040 C.ar    1  UNL1        0.0012
     15 C         138.6387  143.9333  165.0501 C.3     1  UNL1        0.4186
     16 F         138.7505  145.2559  165.7492 F       1  UNL1       -0.1659
     17 F         139.9321  143.4957  165.6711 F       1  UNL1       -0.1659
     18 F         137.3453  144.3710  164.4292 F       1  UNL1       -0.1659
     19 C         145.4024  140.3408  164.0571 C.3     1  UNL1        0.1123
     20 C         145.6391  141.7741  163.6832 C.3     1  UNL1        0.0944
     21 N         144.4859  142.6442  163.2796 N.3     1  UNL1       -0.2637
     22 C         143.7952  142.6312  161.9481 C.3     1  UNL1        0.0992
     23 C         142.7033  143.6590  161.9822 C.ar    1  UNL1       -0.0088
     24 C         141.6967  144.0884  160.9564 C.ar    1  UNL1       -0.0032
     25 C         140.7059  145.1661  161.2831 C.ar    1  UNL1       -0.0003
     26 C         140.7217  145.8145  162.6357 C.ar    1  UNL1       -0.0003
     27 C         141.7283  145.3851  163.6615 C.ar    1  UNL1       -0.0032
     28 C         142.7191  144.3074  163.3348 C.ar    1  UNL1       -0.0088
     29 C         143.8208  143.6802  164.1366 C.3     1  UNL1        0.0992
@<TRIPOS>BOND
     1     7     8    1
     2     8     9    1
     3     9    10   ar
     4    10    11   ar
     5    11    12   ar
     6    12    13   ar
     7    13    15    1
     8    15    16    1
     9    15    17    1
    10    15    18    1
    11    13    14   ar
    12     8     1    1
    13     1     2    1
    14     2     3    1
    15     3     4    1
    16     4    19    1
    17    19    20    1
    18    20    21    1
    19    21    22    1
    20    22    23    1
    21    23    24   ar
    22    24    25   ar
    23    25    26   ar
    24    26    27   ar
    25    27    28   ar
    26    28    29    1
    27     4     5   am
    28     5     6    2
    29    14     9   ar
    30     5     1   am
    31    29    21    1
    32    28    23   ar
@<TRIPOS>MOLECULE
*****
 29 32 0 0 0
SMALL
GASTEIGER

@<TRIPOS>ATOM
      1 N         138.7919  142.5071  163.7636 N.am    1  UNL1       -0.2602
      2 C         138.6397  142.9182  162.3291 C.3     1  UNL1        0.1167
      3 C         138.2406  141.7069  161.5395 C.3     1  UNL1        0.1165
      4 N         138.1461  140.5470  162.4861 N.am    1  UNL1       -0.2609
      5 C         138.4868  141.0416  163.8606 C.2     1  UNL1        0.3075
      6 O         138.5171  140.2157  165.1124 O.2     1  UNL1       -0.2523
      7 C         138.4733  144.7114  165.1013 C.3     1  UNL1        0.0265
      8 C         139.1808  143.4039  164.9012 C.3     1  UNL1        0.0994
      9 C         140.2772  142.9932  165.8389 C.ar    1  UNL1       -0.0043
     10 C         141.6209  142.6044  165.2973 C.ar    1  UNL1       -0.0027
     11 C         142.7173  142.1937  166.2350 C.ar    1  UNL1       -0.0003
     12 C         142.4701  142.1719  167.7143 C.ar    1  UNL1        0.0038
     13 C         141.1264  142.5608  168.2559 C.ar    1  UNL1        0.0712
     14 C         140.0300  142.9714  167.3182 C.ar    1  UNL1        0.0012
     15 C         140.8792  142.5389  169.7352 C.3     1  UNL1        0.4186
     16 F         140.6320  142.5172  171.2146 F       1  UNL1       -0.1659
     17 F         139.7219  141.6075  169.5281 F       1  UNL1       -0.1659
     18 F         142.0365  143.4704  169.9424 F       1  UNL1       -0.1659
     19 C         137.7758  139.1398  162.1220 C.3     1  UNL1        0.1123
     20 C         138.8105  138.0550  162.1729 C.3     1  UNL1        0.0944
     21 N         140.1312  138.3087  162.8374 N.3     1  UNL1       -0.2637
     22 C         140.5248  137.8648  164.2150 C.3     1  UNL1        0.0992
     23 C         141.9270  138.3327  164.4699 C.ar    1  UNL1       -0.0088
     24 C         142.8342  138.1859  165.6554 C.ar    1  UNL1       -0.0032
     25 C         144.2144  138.7722  165.6207 C.ar    1  UNL1       -0.0003
     26 C         144.6874  139.5053  164.4005 C.ar    1  UNL1       -0.0003
     27 C         143.7802  139.6520  163.2150 C.ar    1  UNL1       -0.0032
     28 C         142.4000  139.0658  163.2497 C.ar    1  UNL1       -0.0088
     29 C         141.2901  139.0509  162.2408 C.3     1  UNL1        0.0992
@<TRIPOS>BOND
     1     7     8    1
     2     8     9    1
     3     9    10   ar
     4    10    11   ar
     5    11    12   ar
     6    12    13   ar
     7    13    15    1
     8    15    16    1
     9    15    17    1
    10    15    18    1
    11    13    14   ar
    12     8     1    1
    13     1     2    1
    14     2     3    1
    15     3     4    1
    16     4    19    1
    17    19    20    1
    18    20    21    1
    19    21    22    1
    20    22    23    1
    21    23    24   ar
    22    24    25   ar
    23    25    26   ar
    24    26    27   ar
    25    27    28   ar
    26    28    29    1
    27     4     5   am
    28     5     6    2
    29    14     9   ar
    30     5     1   am
    31    29    21    1
    32    28    23   ar
@<TRIPOS>MOLECULE
*****
 29 32 0 0 0
SMALL
GASTEIGER

@<TRIPOS>ATOM
      1 N         139.2977  138.8285  165.0474 N.am    1  UNL1       -0.2602
      2 C         140.3283  137.8297  164.6112 C.3     1  UNL1        0.1167
      3 C         140.4173  137.8790  163.1146 C.3     1  UNL1        0.1165
      4 N         139.4416  138.9083  162.6259 N.am    1  UNL1       -0.2609
      5 C         138.7497  139.4951  163.8204 C.2     1  UNL1        0.3075
      6 O         137.6950  140.5613  163.7929 O.2     1  UNL1       -0.2523
      7 C         137.6493  138.4776  167.0246 C.3     1  UNL1        0.0265
      8 C         138.8872  139.1111  166.4621 C.3     1  UNL1        0.0994
      9 C         139.7146  140.0271  167.3144 C.ar    1  UNL1       -0.0043
     10 C         139.3546  140.2402  168.7549 C.ar    1  UNL1       -0.0027
     11 C         140.1820  141.1562  169.6071 C.ar    1  UNL1       -0.0003
     12 C         141.3694  141.8591  169.0189 C.ar    1  UNL1        0.0038
     13 C         141.7294  141.6460  167.5784 C.ar    1  UNL1        0.0712
     14 C         140.9020  140.7299  166.7262 C.ar    1  UNL1        0.0012
     15 C         142.9168  142.3488  166.9902 C.3     1  UNL1        0.4186
     16 F         144.1043  143.0518  166.4020 F       1  UNL1       -0.1659
     17 F         142.2806  142.2881  165.6332 F       1  UNL1       -0.1659
     18 F         143.5531  142.4096  168.3472 F       1  UNL1       -0.1659
     19 C         139.2003  139.2846  161.1941 C.3     1  UNL1        0.1123
     20 C         139.2533  140.7248  160.7780 C.3     1  UNL1        0.0944
     21 N         140.2201  141.6616  161.4395 N.3     1  UNL1       -0.2637
     22 C         139.8615  142.8802  162.2371 C.3     1  UNL1        0.0992
     23 C         141.1350  143.5160  162.7102 C.ar    1  UNL1       -0.0088
     24 C         141.3994  144.7402  163.5357 C.ar    1  UNL1       -0.0032
     25 C         142.8096  145.1385  163.8560 C.ar    1  UNL1       -0.0003
     26 C         143.9554  144.3128  163.3508 C.ar    1  UNL1       -0.0003
     27 C         143.6910  143.0887  162.5252 C.ar    1  UNL1       -0.0032
     28 C         142.2808  142.6903  162.2049 C.ar    1  UNL1       -0.0088
     29 C         141.7154  141.5442  161.4196 C.3     1  UNL1        0.0992
@<TRIPOS>BOND
     1     7     8    1
     2     8     9    1
     3     9    10   ar
     4    10    11   ar
     5    11    12   ar
     6    12    13   ar
     7    13    15    1
     8    15    16    1
     9    15    17    1
    10    15    18    1
    11    13    14   ar
    12     8     1    1
    13     1     2    1
    14     2     3    1
    15     3     4    1
    16     4    19    1
    17    19    20    1
    18    20    21    1
    19    21    22    1
    20    22    23    1
    21    23    24   ar
    22    24    25   ar
    23    25    26   ar
    24    26    27   ar
    25    27    28   ar
    26    28    29    1
    27     4     5   am
    28     5     6    2
    29    14     9   ar
    30     5     1   am
    31    29    21    1
    32    28    23   ar
