@<TRIPOS>MOLECULE
*****
 37 41 0 0 0
SMALL
GASTEIGER

@<TRIPOS>ATOM
      1 O         141.5247  138.6945  158.2980 O.2     1  UNL1       -0.2706
      2 C         142.5879  137.6389  158.2258 C.2     1  UNL1        0.2701
      3 N         143.2934  137.1982  159.4740 N.am    1  UNL1       -0.2999
      4 H         143.9912  136.5054  159.4266 H       1  UNL1        0.1496
      5 C         142.9355  137.8131  160.7945 C.3     1  UNL1        0.1035
      6 C         141.7817  137.6884  161.7448 C.3     1  UNL1        0.0933
      7 N         142.4295  138.6829  162.6620 N.3     1  UNL1       -0.2711
      8 C         143.5834  138.8077  161.7118 C.3     1  UNL1        0.0933
      9 C         142.0716  139.2978  163.9825 C.3     1  UNL1        0.0577
     10 C         142.4924  138.6315  165.2588 C.3     1  UNL1        0.0179
     11 C         142.1345  139.2465  166.5793 C.3     1  UNL1        0.0240
     12 C         141.3559  140.5278  166.6236 C.3     1  UNL1        0.0885
     13 C         140.9351  141.1941  165.3472 C.3     1  UNL1        0.0240
     14 C         141.2929  140.5791  164.0268 C.3     1  UNL1        0.0179
     15 N         140.9979  141.1428  167.9440 N.ar    1  UNL1       -0.2960
     16 C         141.8272  142.2628  168.4990 C.ar    1  UNL1        0.0782
     17 C         141.4693  142.8780  169.8195 C.ar    1  UNL1        0.0189
     18 C         140.2823  142.3731  170.5849 C.ar    1  UNL1        0.0064
     19 C         139.4531  141.2531  170.0299 C.ar    1  UNL1        0.0608
     20 C         139.8109  140.6379  168.7095 C.ar    1  UNL1        0.2609
     21 O         138.9817  139.5179  168.1545 O.2     1  UNL1       -0.2670
     22 C         142.9458  137.0239  156.9052 C.3     1  UNL1        0.2850
     23 N         142.2724  135.7598  156.4594 N.pl3   1  UNL1       -0.2091
     24 H         141.4451  135.8040  155.9276 H       1  UNL1        0.2928
     25 C         142.8594  134.4285  156.8241 C.2     1  UNL1        0.3493
     26 N         143.9720  134.1936  157.8023 N.2     1  UNL1        0.0798
     27 N         144.2371  132.7183  157.8573 N.2     1  UNL1       -0.0381
     28 C         143.2884  132.0413  156.9130 C.2     1  UNL1        0.1169
     29 C         143.0898  130.5990  156.5521 C.3     1  UNL1        0.0759
     30 C         142.0398  130.2137  155.5527 C.2     1  UNL1       -0.0158
     31 C         141.1883  131.2707  154.9141 C.2     1  UNL1        0.0678
     32 C         141.3869  132.7130  155.2750 C.2     1  UNL1        0.0123
     33 C         142.4369  133.0983  156.2744 C.2     1  UNL1        0.1019
     34 C         140.1383  130.8853  153.9146 C.3     1  UNL1        0.4183
     35 F         139.0883  130.4999  152.9152 F       1  UNL1       -0.1659
     36 F         139.4182  130.1031  154.9727 F       1  UNL1       -0.1659
     37 F         140.8584  131.6674  152.8566 F       1  UNL1       -0.1659
@<TRIPOS>BOND
     1     1     2    2
     2     2    22    1
     3    22    23    1
     4    23    25    1
     5    25    26    2
     6    26    27    1
     7    27    28    2
     8    28    29    1
     9    29    30    1
    10    30    31    2
    11    31    34    1
    12    34    35    1
    13    34    36    1
    14    34    37    1
    15    31    32    1
    16    32    33    2
    17     2     3   am
    18     3     5    1
    19     5     6    1
    20     6     7    1
    21     9     7    1
    22     9    10    1
    23    10    11    1
    24    11    12    1
    25    12    15    1
    26    15    16   ar
    27    16    17   ar
    28    17    18   ar
    29    18    19   ar
    30    19    20   ar
    31    20    21    2
    32    12    13    1
    33    13    14    1
    34     7     8    1
    35    33    25    1
    36     8     5    1
    37    33    28    1
    38    14     9    1
    39    20    15   ar
    40    23    24    1
    41     3     4    1
@<TRIPOS>MOLECULE
*****
 37 41 0 0 0
SMALL
GASTEIGER

@<TRIPOS>ATOM
      1 O         141.8413  139.0734  158.7289 O.2     1  UNL1       -0.2706
      2 C         142.4442  137.7062  158.5976 C.2     1  UNL1        0.2701
      3 N         142.9267  136.9789  159.8174 N.am    1  UNL1       -0.2999
      4 H         143.3224  136.0815  159.7312 H       1  UNL1        0.1496
      5 C         142.8063  137.6188  161.1687 C.3     1  UNL1        0.1035
      6 C         143.7357  138.3756  162.0706 C.3     1  UNL1        0.0933
      7 N         142.6359  138.5238  163.0798 N.3     1  UNL1       -0.2711
      8 C         141.7065  137.7670  162.1780 C.3     1  UNL1        0.0933
      9 C         142.5155  139.1637  164.4311 C.3     1  UNL1        0.0577
     10 C         143.0630  138.4679  165.6419 C.3     1  UNL1        0.0179
     11 C         142.9426  139.1079  166.9932 C.3     1  UNL1        0.0240
     12 C         142.2747  140.4436  167.1337 C.3     1  UNL1        0.0885
     13 C         141.7273  141.1394  165.9227 C.3     1  UNL1        0.0240
     14 C         141.8477  140.4995  164.5715 C.3     1  UNL1        0.0179
     15 N         142.1543  141.0837  168.4848 N.ar    1  UNL1       -0.2960
     16 C         143.1601  142.1069  168.9224 C.ar    1  UNL1        0.0782
     17 C         143.0398  142.7470  170.2736 C.ar    1  UNL1        0.0189
     18 C         141.9136  142.3639  171.1873 C.ar    1  UNL1        0.0064
     19 C         140.9078  141.3407  170.7498 C.ar    1  UNL1        0.0608
     20 C         141.0281  140.7006  169.3986 C.ar    1  UNL1        0.2609
     21 O         140.0223  139.6774  168.9611 O.2     1  UNL1       -0.2670
     22 C         142.5646  137.0662  157.2463 C.3     1  UNL1        0.2850
     23 N         141.3690  136.4165  156.6149 N.pl3   1  UNL1       -0.2091
     24 H         140.4625  136.6580  156.9134 H       1  UNL1        0.2928
     25 C         141.5547  135.3988  155.5287 C.2     1  UNL1        0.3493
     26 N         140.9000  135.4200  154.1793 N.2     1  UNL1        0.0798
     27 N         141.3684  134.2154  153.4179 N.2     1  UNL1       -0.0381
     28 C         142.3126  133.4498  154.2968 C.2     1  UNL1        0.1169
     29 C         143.0824  132.1812  154.0776 C.3     1  UNL1        0.0759
     30 C         143.9673  131.6439  155.1631 C.2     1  UNL1       -0.0158
     31 C         144.0824  132.3753  156.4676 C.2     1  UNL1        0.0678
     32 C         143.3126  133.6439  156.6868 C.2     1  UNL1        0.0123
     33 C         142.4277  134.1811  155.6013 C.2     1  UNL1        0.1019
     34 C         144.9674  131.8379  157.5531 C.3     1  UNL1        0.4183
     35 F         145.8523  131.3007  158.6386 F       1  UNL1       -0.1659
     36 F         144.9455  130.4868  156.9022 F       1  UNL1       -0.1659
     37 F         144.9893  133.1891  158.2041 F       1  UNL1       -0.1659
@<TRIPOS>BOND
     1     1     2    2
     2     2    22    1
     3    22    23    1
     4    23    25    1
     5    25    26    2
     6    26    27    1
     7    27    28    2
     8    28    29    1
     9    29    30    1
    10    30    31    2
    11    31    34    1
    12    34    35    1
    13    34    36    1
    14    34    37    1
    15    31    32    1
    16    32    33    2
    17     2     3   am
    18     3     5    1
    19     5     6    1
    20     6     7    1
    21     9     7    1
    22     9    10    1
    23    10    11    1
    24    11    12    1
    25    12    15    1
    26    15    16   ar
    27    16    17   ar
    28    17    18   ar
    29    18    19   ar
    30    19    20   ar
    31    20    21    2
    32    12    13    1
    33    13    14    1
    34     7     8    1
    35    33    25    1
    36     8     5    1
    37    33    28    1
    38    14     9    1
    39    20    15   ar
    40    23    24    1
    41     3     4    1
@<TRIPOS>MOLECULE
*****
 37 41 0 0 0
SMALL
GASTEIGER

@<TRIPOS>ATOM
      1 O         143.9752  139.6890  157.3715 O.2     1  UNL1       -0.2706
      2 C         143.3953  138.4305  156.7972 C.2     1  UNL1        0.2701
      3 N         142.6092  137.4996  157.6720 N.am    1  UNL1       -0.2999
      4 H         142.2286  136.6736  157.2951 H       1  UNL1        0.1496
      5 C         142.4029  137.8272  159.1212 C.3     1  UNL1        0.1035
      6 C         141.3691  138.5845  159.9007 C.3     1  UNL1        0.0933
      7 N         142.1114  138.2906  161.1707 N.3     1  UNL1       -0.2711
      8 C         143.1452  137.5333  160.3912 C.3     1  UNL1        0.0933
      9 C         141.9051  138.6183  162.6199 C.3     1  UNL1        0.0577
     10 C         141.2021  137.6428  163.5167 C.3     1  UNL1        0.0179
     11 C         140.9958  137.9705  164.9658 C.3     1  UNL1        0.0240
     12 C         141.4927  139.2736  165.5182 C.3     1  UNL1        0.0885
     13 C         142.1957  140.2490  164.6213 C.3     1  UNL1        0.0240
     14 C         142.4019  139.9213  163.1722 C.3     1  UNL1        0.0179
     15 N         141.2865  139.6014  166.9673 N.ar    1  UNL1       -0.2960
     16 C         140.0359  140.3035  167.4069 C.ar    1  UNL1        0.0782
     17 C         139.8296  140.6313  168.8560 C.ar    1  UNL1        0.0189
     18 C         140.8739  140.2570  169.8656 C.ar    1  UNL1        0.0064
     19 C         142.1245  139.5549  169.4261 C.ar    1  UNL1        0.0608
     20 C         142.3308  139.2271  167.9770 C.ar    1  UNL1        0.2609
     21 O         143.5813  138.5250  167.5375 O.2     1  UNL1       -0.2670
     22 C         143.6016  138.1028  155.3480 C.3     1  UNL1        0.2850
     23 N         144.0436  136.7270  154.9457 N.pl3   1  UNL1       -0.2091
     24 H         145.0030  136.5236  154.8599 H       1  UNL1        0.2928
     25 C         143.0238  135.6610  154.6741 C.2     1  UNL1        0.3493
     26 N         141.8317  135.7904  153.7729 N.2     1  UNL1        0.0798
     27 N         141.0882  134.4879  153.7979 N.2     1  UNL1       -0.0381
     28 C         141.8208  133.5535  154.7146 C.2     1  UNL1        0.1169
     29 C         141.5531  132.1361  155.1261 C.3     1  UNL1        0.0759
     30 C         142.4817  131.4438  156.0791 C.2     1  UNL1       -0.0158
     31 C         143.6780  132.1688  156.6206 C.2     1  UNL1        0.0678
     32 C         143.9457  133.5862  156.2091 C.2     1  UNL1        0.0123
     33 C         143.0171  134.2785  155.2561 C.2     1  UNL1        0.1019
     34 C         144.6067  131.4764  157.5737 C.3     1  UNL1        0.4183
     35 F         145.5352  130.7840  158.5267 F       1  UNL1       -0.1659
     36 F         145.0274  132.8048  158.1289 F       1  UNL1       -0.1659
     37 F         144.1859  130.1480  157.0185 F       1  UNL1       -0.1659
@<TRIPOS>BOND
     1     1     2    2
     2     2    22    1
     3    22    23    1
     4    23    25    1
     5    25    26    2
     6    26    27    1
     7    27    28    2
     8    28    29    1
     9    29    30    1
    10    30    31    2
    11    31    34    1
    12    34    35    1
    13    34    36    1
    14    34    37    1
    15    31    32    1
    16    32    33    2
    17     2     3   am
    18     3     5    1
    19     5     6    1
    20     6     7    1
    21     9     7    1
    22     9    10    1
    23    10    11    1
    24    11    12    1
    25    12    15    1
    26    15    16   ar
    27    16    17   ar
    28    17    18   ar
    29    18    19   ar
    30    19    20   ar
    31    20    21    2
    32    12    13    1
    33    13    14    1
    34     7     8    1
    35    33    25    1
    36     8     5    1
    37    33    28    1
    38    14     9    1
    39    20    15   ar
    40    23    24    1
    41     3     4    1
@<TRIPOS>MOLECULE
*****
 37 41 0 0 0
SMALL
GASTEIGER

@<TRIPOS>ATOM
      1 O         142.1330  140.5572  158.3537 O.2     1  UNL1       -0.2706
      2 C         142.8886  139.3142  157.9879 C.2     1  UNL1        0.2701
      3 N         143.3548  138.3764  159.0617 N.am    1  UNL1       -0.2999
      4 H         143.8507  137.5605  158.8216 H       1  UNL1        0.1496
      5 C         143.0653  138.6817  160.5015 C.3     1  UNL1        0.1035
      6 C         143.7008  139.5441  161.5514 C.3     1  UNL1        0.0933
      7 N         142.6559  139.1135  162.5377 N.3     1  UNL1       -0.2711
      8 C         142.0203  138.2511  161.4878 C.3     1  UNL1        0.0933
      9 C         142.3665  139.4188  163.9775 C.3     1  UNL1        0.0577
     10 C         141.4781  140.5731  164.3355 C.3     1  UNL1        0.0179
     11 C         141.1886  140.8785  165.7753 C.3     1  UNL1        0.0240
     12 C         141.7876  140.0295  166.8571 C.3     1  UNL1        0.0885
     13 C         142.6761  138.8751  166.4990 C.3     1  UNL1        0.0240
     14 C         142.9655  138.5698  165.0593 C.3     1  UNL1        0.0179
     15 N         141.4983  140.3347  168.2969 N.ar    1  UNL1       -0.2960
     16 C         142.5665  140.9277  169.1672 C.ar    1  UNL1        0.0782
     17 C         142.2773  141.2330  170.6070 C.ar    1  UNL1        0.0189
     18 C         140.9198  140.9452  171.1766 C.ar    1  UNL1        0.0064
     19 C         139.8516  140.3522  170.3064 C.ar    1  UNL1        0.0608
     20 C         140.1408  140.0470  168.8665 C.ar    1  UNL1        0.2609
     21 O         139.0726  139.4539  167.9963 O.2     1  UNL1       -0.2670
     22 C         143.1780  139.0088  156.5481 C.3     1  UNL1        0.2850
     23 N         143.6896  137.6541  156.1568 N.pl3   1  UNL1       -0.2091
     24 H         144.6553  137.4649  156.1873 H       1  UNL1        0.2928
     25 C         142.7299  136.5876  155.7192 C.2     1  UNL1        0.3493
     26 N         141.4832  136.8003  154.9127 N.2     1  UNL1        0.0798
     27 N         140.8312  135.4653  154.7063 N.2     1  UNL1       -0.0381
     28 C         141.6749  134.4275  155.3853 C.2     1  UNL1        0.1169
     29 C         141.5262  132.9405  155.5145 C.3     1  UNL1        0.0759
     30 C         142.5511  132.1471  156.2696 C.2     1  UNL1       -0.0158
     31 C         143.7245  132.8407  156.8956 C.2     1  UNL1        0.0678
     32 C         143.8732  134.3277  156.7665 C.2     1  UNL1        0.0123
     33 C         142.8484  135.1211  156.0113 C.2     1  UNL1        0.1019
     34 C         144.7494  132.0472  157.6507 C.3     1  UNL1        0.4183
     35 F         145.7742  131.2538  158.4058 F       1  UNL1       -0.1659
     36 F         145.0194  133.2324  158.5296 F       1  UNL1       -0.1659
     37 F         144.4793  130.8621  156.7719 F       1  UNL1       -0.1659
@<TRIPOS>BOND
     1     1     2    2
     2     2    22    1
     3    22    23    1
     4    23    25    1
     5    25    26    2
     6    26    27    1
     7    27    28    2
     8    28    29    1
     9    29    30    1
    10    30    31    2
    11    31    34    1
    12    34    35    1
    13    34    36    1
    14    34    37    1
    15    31    32    1
    16    32    33    2
    17     2     3   am
    18     3     5    1
    19     5     6    1
    20     6     7    1
    21     9     7    1
    22     9    10    1
    23    10    11    1
    24    11    12    1
    25    12    15    1
    26    15    16   ar
    27    16    17   ar
    28    17    18   ar
    29    18    19   ar
    30    19    20   ar
    31    20    21    2
    32    12    13    1
    33    13    14    1
    34     7     8    1
    35    33    25    1
    36     8     5    1
    37    33    28    1
    38    14     9    1
    39    20    15   ar
    40    23    24    1
    41     3     4    1
@<TRIPOS>MOLECULE
*****
 37 41 0 0 0
SMALL
GASTEIGER

@<TRIPOS>ATOM
      1 O         143.4793  142.4379  163.0687 O.2     1  UNL1       -0.2706
      2 C         143.4335  143.7341  162.3152 C.2     1  UNL1        0.2701
      3 N         143.2907  143.7290  160.8221 N.am    1  UNL1       -0.2999
      4 H         143.2607  144.5797  160.3275 H       1  UNL1        0.1496
      5 C         143.1937  142.4276  160.0824 C.3     1  UNL1        0.1035
      6 C         144.1329  141.6105  159.2457 C.3     1  UNL1        0.0933
      7 N         143.0563  140.5872  159.0364 N.3     1  UNL1       -0.2711
      8 C         142.1170  141.4042  159.8732 C.3     1  UNL1        0.0933
      9 C         142.9593  139.2858  158.2968 C.3     1  UNL1        0.0577
     10 C         143.0814  139.2618  156.8020 C.3     1  UNL1        0.0179
     11 C         142.9843  137.9605  156.0623 C.3     1  UNL1        0.0240
     12 C         142.7652  136.6831  156.8175 C.3     1  UNL1        0.0885
     13 C         142.6431  136.7072  158.3124 C.3     1  UNL1        0.0240
     14 C         142.7401  138.0085  159.0520 C.3     1  UNL1        0.0179
     15 N         142.6681  135.3817  156.0780 N.ar    1  UNL1       -0.2960
     16 C         143.7979  134.3970  156.1414 C.ar    1  UNL1        0.0782
     17 C         143.7010  133.0956  155.4020 C.ar    1  UNL1        0.0189
     18 C         142.4742  132.7788  154.5990 C.ar    1  UNL1        0.0064
     19 C         141.3444  133.7635  154.5356 C.ar    1  UNL1        0.0608
     20 C         141.4414  135.0649  155.2751 C.ar    1  UNL1        0.2609
     21 O         140.3116  136.0496  155.2116 O.2     1  UNL1       -0.2670
     22 C         143.5306  145.0354  163.0549 C.3     1  UNL1        0.2850
     23 N         142.3249  145.5944  163.7506 N.pl3   1  UNL1       -0.2091
     24 H         142.4338  146.1361  164.5654 H       1  UNL1        0.2928
     25 C         140.9533  145.3280  163.2048 C.2     1  UNL1        0.3493
     26 N         140.2711  146.1040  162.1174 N.2     1  UNL1        0.0798
     27 N         138.9193  145.4945  161.8912 N.2     1  UNL1       -0.0381
     28 C         138.7661  144.3418  162.8387 C.2     1  UNL1        0.1169
     29 C         137.6444  143.3725  163.0671 C.3     1  UNL1        0.0759
     30 C         137.7797  142.3004  164.1074 C.2     1  UNL1       -0.0158
     31 C         139.0368  142.1976  164.9193 C.2     1  UNL1        0.0678
     32 C         140.1586  143.1668  164.6909 C.2     1  UNL1        0.0123
     33 C         140.0232  144.2389  163.6506 C.2     1  UNL1        0.1019
     34 C         139.1721  141.1254  165.9596 C.3     1  UNL1        0.4183
     35 F         139.3075  140.0533  166.9999 F       1  UNL1       -0.1659
     36 F         138.0250  140.3817  165.3425 F       1  UNL1       -0.1659
     37 F         140.3193  141.8691  166.5768 F       1  UNL1       -0.1659
@<TRIPOS>BOND
     1     1     2    2
     2     2    22    1
     3    22    23    1
     4    23    25    1
     5    25    26    2
     6    26    27    1
     7    27    28    2
     8    28    29    1
     9    29    30    1
    10    30    31    2
    11    31    34    1
    12    34    35    1
    13    34    36    1
    14    34    37    1
    15    31    32    1
    16    32    33    2
    17     2     3   am
    18     3     5    1
    19     5     6    1
    20     6     7    1
    21     9     7    1
    22     9    10    1
    23    10    11    1
    24    11    12    1
    25    12    15    1
    26    15    16   ar
    27    16    17   ar
    28    17    18   ar
    29    18    19   ar
    30    19    20   ar
    31    20    21    2
    32    12    13    1
    33    13    14    1
    34     7     8    1
    35    33    25    1
    36     8     5    1
    37    33    28    1
    38    14     9    1
    39    20    15   ar
    40    23    24    1
    41     3     4    1
@<TRIPOS>MOLECULE
*****
 37 41 0 0 0
SMALL
GASTEIGER

@<TRIPOS>ATOM
      1 O         141.8107  138.8193  161.7805 O.2     1  UNL1       -0.2706
      2 C         140.5109  138.6133  161.0608 C.2     1  UNL1        0.2701
      3 N         140.4089  138.9159  159.5952 N.am    1  UNL1       -0.2999
      4 H         139.5558  138.7806  159.1228 H       1  UNL1        0.1496
      5 C         141.6068  139.4246  158.8493 C.3     1  UNL1        0.1035
      6 C         141.8740  140.5840  157.9360 C.3     1  UNL1        0.0933
      7 N         143.3009  140.1439  157.7946 N.3     1  UNL1       -0.2711
      8 C         143.0338  138.9844  158.7079 C.3     1  UNL1        0.0933
      9 C         144.4988  140.6526  157.0487 C.3     1  UNL1        0.0577
     10 C         145.2962  141.7966  157.6013 C.3     1  UNL1        0.0179
     11 C         146.4941  142.3053  156.8555 C.3     1  UNL1        0.0240
     12 C         146.8947  141.6699  155.5570 C.3     1  UNL1        0.0885
     13 C         146.0972  140.5258  155.0045 C.3     1  UNL1        0.0240
     14 C         144.8993  140.0172  155.7503 C.3     1  UNL1        0.0179
     15 N         148.0925  142.1785  154.8111 N.ar    1  UNL1       -0.2960
     16 C         149.4589  141.6540  155.1397 C.ar    1  UNL1        0.0782
     17 C         150.6569  142.1625  154.3938 C.ar    1  UNL1        0.0189
     18 C         150.4884  143.1955  153.3194 C.ar    1  UNL1        0.0064
     19 C         149.1221  143.7201  152.9908 C.ar    1  UNL1        0.0608
     20 C         147.9241  143.2115  153.7367 C.ar    1  UNL1        0.2609
     21 O         146.5578  143.7361  153.4081 O.2     1  UNL1       -0.2670
     22 C         139.3130  138.1046  161.8066 C.3     1  UNL1        0.2850
     23 N         139.4803  137.4904  163.1649 N.pl3   1  UNL1       -0.2091
     24 H         139.5939  136.5166  163.2543 H       1  UNL1        0.2928
     25 C         139.4746  138.3601  164.3871 C.2     1  UNL1        0.3493
     26 N         138.2904  139.0967  164.9395 N.2     1  UNL1        0.0798
     27 N         138.7360  139.8377  166.1652 N.2     1  UNL1       -0.0381
     28 C         140.1956  139.5589  166.3704 C.2     1  UNL1        0.1169
     29 C         141.1679  140.0186  167.4159 C.3     1  UNL1        0.0759
     30 C         142.5967  139.5651  167.3625 C.2     1  UNL1       -0.0158
     31 C         143.0531  138.6519  166.2636 C.2     1  UNL1        0.0678
     32 C         142.0808  138.1922  165.2180 C.2     1  UNL1        0.0123
     33 C         140.6520  138.6457  165.2715 C.2     1  UNL1        0.1019
     34 C         144.4820  138.1984  166.2102 C.3     1  UNL1        0.4183
     35 F         145.9108  137.7450  166.1567 F       1  UNL1       -0.1659
     36 F         144.2098  137.2115  167.3064 F       1  UNL1       -0.1659
     37 F         144.7542  139.1854  165.1139 F       1  UNL1       -0.1659
@<TRIPOS>BOND
     1     1     2    2
     2     2    22    1
     3    22    23    1
     4    23    25    1
     5    25    26    2
     6    26    27    1
     7    27    28    2
     8    28    29    1
     9    29    30    1
    10    30    31    2
    11    31    34    1
    12    34    35    1
    13    34    36    1
    14    34    37    1
    15    31    32    1
    16    32    33    2
    17     2     3   am
    18     3     5    1
    19     5     6    1
    20     6     7    1
    21     9     7    1
    22     9    10    1
    23    10    11    1
    24    11    12    1
    25    12    15    1
    26    15    16   ar
    27    16    17   ar
    28    17    18   ar
    29    18    19   ar
    30    19    20   ar
    31    20    21    2
    32    12    13    1
    33    13    14    1
    34     7     8    1
    35    33    25    1
    36     8     5    1
    37    33    28    1
    38    14     9    1
    39    20    15   ar
    40    23    24    1
    41     3     4    1
@<TRIPOS>MOLECULE
*****
 37 41 0 0 0
SMALL
GASTEIGER

@<TRIPOS>ATOM
      1 O         140.3441  141.9217  159.8381 O.2     1  UNL1       -0.2706
      2 C         141.2479  142.9997  159.3176 C.2     1  UNL1        0.2701
      3 N         142.2640  142.6813  158.2612 N.am    1  UNL1       -0.2999
      4 H         142.8572  143.3889  157.9195 H       1  UNL1        0.1496
      5 C         142.3763  141.2848  157.7253 C.3     1  UNL1        0.1035
      6 C         142.1252  140.6350  156.3969 C.3     1  UNL1        0.0933
      7 N         142.5352  139.3098  156.9676 N.3     1  UNL1       -0.2711
      8 C         142.7864  139.9595  158.2960 C.3     1  UNL1        0.0933
      9 C         142.6475  137.9133  156.4317 C.3     1  UNL1        0.0577
     10 C         141.4532  137.0059  156.4466 C.3     1  UNL1        0.0179
     11 C         141.5655  135.6094  155.9107 C.3     1  UNL1        0.0240
     12 C         142.8722  135.1203  155.3600 C.3     1  UNL1        0.0885
     13 C         144.0665  136.0277  155.3451 C.3     1  UNL1        0.0240
     14 C         143.9542  137.4241  155.8809 C.3     1  UNL1        0.0179
     15 N         142.9846  133.7238  154.8241 N.ar    1  UNL1       -0.2960
     16 C         142.3364  133.3668  153.5193 C.ar    1  UNL1        0.0782
     17 C         142.4488  131.9703  152.9833 C.ar    1  UNL1        0.0189
     18 C         143.2093  130.9309  153.7521 C.ar    1  UNL1        0.0064
     19 C         143.8575  131.2879  155.0569 C.ar    1  UNL1        0.0608
     20 C         143.7451  132.6843  155.5929 C.ar    1  UNL1        0.2609
     21 O         144.3933  133.0413  156.8976 O.2     1  UNL1       -0.2670
     22 C         141.1356  144.3963  159.8534 C.3     1  UNL1        0.2850
     23 N         142.2124  144.9482  160.7401 N.pl3   1  UNL1       -0.2091
     24 H         142.6647  145.7891  160.5001 H       1  UNL1        0.2928
     25 C         142.5999  144.2191  161.9923 C.2     1  UNL1        0.3493
     26 N         143.9332  143.5906  162.2699 N.2     1  UNL1        0.0798
     27 N         143.8794  142.9734  163.6360 N.2     1  UNL1       -0.0381
     28 C         142.5128  143.2206  164.2028 C.2     1  UNL1        0.1169
     29 C         141.8863  142.8440  165.5126 C.3     1  UNL1        0.0759
     30 C         140.4690  143.2374  165.8066 C.2     1  UNL1       -0.0158
     31 C         139.6781  144.0072  164.7907 C.2     1  UNL1        0.0678
     32 C         140.3046  144.3837  163.4809 C.2     1  UNL1        0.0123
     33 C         141.7219  143.9904  163.1869 C.2     1  UNL1        0.1019
     34 C         138.2607  144.4005  165.0848 C.3     1  UNL1        0.4183
     35 F         136.8434  144.7938  165.3788 F       1  UNL1       -0.1659
     36 F         138.7273  145.1996  166.2653 F       1  UNL1       -0.1659
     37 F         137.7941  143.6015  163.9042 F       1  UNL1       -0.1659
@<TRIPOS>BOND
     1     1     2    2
     2     2    22    1
     3    22    23    1
     4    23    25    1
     5    25    26    2
     6    26    27    1
     7    27    28    2
     8    28    29    1
     9    29    30    1
    10    30    31    2
    11    31    34    1
    12    34    35    1
    13    34    36    1
    14    34    37    1
    15    31    32    1
    16    32    33    2
    17     2     3   am
    18     3     5    1
    19     5     6    1
    20     6     7    1
    21     9     7    1
    22     9    10    1
    23    10    11    1
    24    11    12    1
    25    12    15    1
    26    15    16   ar
    27    16    17   ar
    28    17    18   ar
    29    18    19   ar
    30    19    20   ar
    31    20    21    2
    32    12    13    1
    33    13    14    1
    34     7     8    1
    35    33    25    1
    36     8     5    1
    37    33    28    1
    38    14     9    1
    39    20    15   ar
    40    23    24    1
    41     3     4    1
@<TRIPOS>MOLECULE
*****
 37 41 0 0 0
SMALL
GASTEIGER

@<TRIPOS>ATOM
      1 O         139.9910  145.8582  159.7402 O.2     1  UNL1       -0.2706
      2 C         141.1972  145.4385  158.9533 C.2     1  UNL1        0.2701
      3 N         142.2230  144.5386  159.5760 N.am    1  UNL1       -0.2999
      4 H         143.0147  144.2632  159.0595 H       1  UNL1        0.1496
      5 C         142.0428  144.0584  160.9855 C.3     1  UNL1        0.1035
      6 C         142.6499  144.4092  162.3115 C.3     1  UNL1        0.0933
      7 N         141.7877  143.3791  162.9789 N.3     1  UNL1       -0.2711
      8 C         141.1805  143.0282  161.6530 C.3     1  UNL1        0.0933
      9 C         141.6074  142.8989  164.3885 C.3     1  UNL1        0.0577
     10 C         142.5285  141.8562  164.9492 C.3     1  UNL1        0.0179
     11 C         142.3482  141.3759  166.3588 C.3     1  UNL1        0.0240
     12 C         141.2469  141.9384  167.2076 C.3     1  UNL1        0.0885
     13 C         140.3258  142.9811  166.6469 C.3     1  UNL1        0.0240
     14 C         140.5060  143.4613  165.2374 C.3     1  UNL1        0.0179
     15 N         141.0665  141.4582  168.6171 N.ar    1  UNL1       -0.2960
     16 C         139.9660  140.4932  168.9457 C.ar    1  UNL1        0.0782
     17 C         139.7855  140.0130  170.3552 C.ar    1  UNL1        0.0189
     18 C         140.7055  140.4977  171.4362 C.ar    1  UNL1        0.0064
     19 C         141.8059  141.4627  171.1078 C.ar    1  UNL1        0.0608
     20 C         141.9864  141.9429  169.6982 C.ar    1  UNL1        0.2609
     21 O         143.0869  142.9078  169.3697 O.2     1  UNL1       -0.2670
     22 C         141.3774  145.9188  157.5438 C.3     1  UNL1        0.2850
     23 N         140.6756  145.2193  156.4175 N.pl3   1  UNL1       -0.2091
     24 H         140.0585  144.4762  156.6079 H       1  UNL1        0.2928
     25 C         140.9140  145.6521  155.0012 C.2     1  UNL1        0.3493
     26 N         141.5653  144.8329  153.9267 N.2     1  UNL1        0.0798
     27 N         141.5967  145.6546  152.6722 N.2     1  UNL1       -0.0381
     28 C         140.9648  146.9817  152.9714 C.2     1  UNL1        0.1169
     29 C         140.7191  148.1913  152.1192 C.3     1  UNL1        0.0759
     30 C         140.0515  149.3994  152.7063 C.2     1  UNL1       -0.0158
     31 C         139.6295  149.3979  154.1458 C.2     1  UNL1        0.0678
     32 C         139.8752  148.1882  154.9980 C.2     1  UNL1        0.0123
     33 C         140.5428  146.9802  154.4109 C.2     1  UNL1        0.1019
     34 C         138.9619  150.6060  154.7329 C.3     1  UNL1        0.4183
     35 F         138.2943  151.8141  155.3200 F       1  UNL1       -0.1659
     36 F         138.1519  149.7209  155.6332 F       1  UNL1       -0.1659
     37 F         139.7718  151.4911  153.8326 F       1  UNL1       -0.1659
@<TRIPOS>BOND
     1     1     2    2
     2     2    22    1
     3    22    23    1
     4    23    25    1
     5    25    26    2
     6    26    27    1
     7    27    28    2
     8    28    29    1
     9    29    30    1
    10    30    31    2
    11    31    34    1
    12    34    35    1
    13    34    36    1
    14    34    37    1
    15    31    32    1
    16    32    33    2
    17     2     3   am
    18     3     5    1
    19     5     6    1
    20     6     7    1
    21     9     7    1
    22     9    10    1
    23    10    11    1
    24    11    12    1
    25    12    15    1
    26    15    16   ar
    27    16    17   ar
    28    17    18   ar
    29    18    19   ar
    30    19    20   ar
    31    20    21    2
    32    12    13    1
    33    13    14    1
    34     7     8    1
    35    33    25    1
    36     8     5    1
    37    33    28    1
    38    14     9    1
    39    20    15   ar
    40    23    24    1
    41     3     4    1
@<TRIPOS>MOLECULE
*****
 37 41 0 0 0
SMALL
GASTEIGER

@<TRIPOS>ATOM
      1 O         142.4099  145.1498  158.4208 O.2     1  UNL1       -0.2706
      2 C         141.0263  145.6804  158.1885 C.2     1  UNL1        0.2701
      3 N         139.9943  145.5845  159.2729 N.am    1  UNL1       -0.2999
      4 H         139.0862  145.9328  159.1204 H       1  UNL1        0.1496
      5 C         140.3460  144.9578  160.5895 C.3     1  UNL1        0.1035
      6 C         140.5854  143.5561  161.0669 C.3     1  UNL1        0.0933
      7 N         140.8435  144.0717  162.4516 N.3     1  UNL1       -0.2711
      8 C         140.6041  145.4734  161.9744 C.3     1  UNL1        0.0933
      9 C         141.1952  143.4450  163.7683 C.3     1  UNL1        0.0577
     10 C         142.6282  143.1508  164.0999 C.3     1  UNL1        0.0179
     11 C         142.9799  142.5241  165.4166 C.3     1  UNL1        0.0240
     12 C         141.8986  142.1917  166.4016 C.3     1  UNL1        0.0885
     13 C         140.4656  142.4859  166.0699 C.3     1  UNL1        0.0240
     14 C         140.1139  143.1125  164.7533 C.3     1  UNL1        0.0179
     15 N         142.2502  141.5650  167.7183 N.ar    1  UNL1       -0.2960
     16 C         142.6952  142.4257  168.8635 C.ar    1  UNL1        0.0782
     17 C         143.0468  141.7991  170.1802 C.ar    1  UNL1        0.0189
     18 C         142.9535  140.3119  170.3517 C.ar    1  UNL1        0.0064
     19 C         142.5086  139.4512  169.2066 C.ar    1  UNL1        0.0608
     20 C         142.1569  140.0778  167.8899 C.ar    1  UNL1        0.2609
     21 O         141.7120  139.2171  166.7447 O.2     1  UNL1       -0.2670
     22 C         140.6745  146.3071  156.8719 C.3     1  UNL1        0.2850
     23 N         140.2865  145.4421  155.7094 N.pl3   1  UNL1       -0.2091
     24 H         140.8756  145.3812  154.9229 H       1  UNL1        0.2928
     25 C         139.0010  144.6700  155.7452 C.2     1  UNL1        0.3493
     26 N         137.6976  145.0991  155.1395 N.2     1  UNL1        0.0798
     27 N         136.6843  144.0275  155.4130 N.2     1  UNL1       -0.0381
     28 C         137.3614  142.9361  156.1878 C.2     1  UNL1        0.1169
     29 C         136.8592  141.6320  156.7328 C.3     1  UNL1        0.0759
     30 C         137.7889  140.7250  157.4832 C.2     1  UNL1       -0.0158
     31 C         139.2207  141.1221  157.6885 C.2     1  UNL1        0.0678
     32 C         139.7229  142.4262  157.1434 C.2     1  UNL1        0.0123
     33 C         138.7933  143.3332  156.3931 C.2     1  UNL1        0.1019
     34 C         140.1504  140.2150  158.4389 C.3     1  UNL1        0.4183
     35 F         141.0800  139.3080  159.1893 F       1  UNL1       -0.1659
     36 F         140.7560  139.7636  157.1430 F       1  UNL1       -0.1659
     37 F         139.5447  140.6664  159.7348 F       1  UNL1       -0.1659
@<TRIPOS>BOND
     1     1     2    2
     2     2    22    1
     3    22    23    1
     4    23    25    1
     5    25    26    2
     6    26    27    1
     7    27    28    2
     8    28    29    1
     9    29    30    1
    10    30    31    2
    11    31    34    1
    12    34    35    1
    13    34    36    1
    14    34    37    1
    15    31    32    1
    16    32    33    2
    17     2     3   am
    18     3     5    1
    19     5     6    1
    20     6     7    1
    21     9     7    1
    22     9    10    1
    23    10    11    1
    24    11    12    1
    25    12    15    1
    26    15    16   ar
    27    16    17   ar
    28    17    18   ar
    29    18    19   ar
    30    19    20   ar
    31    20    21    2
    32    12    13    1
    33    13    14    1
    34     7     8    1
    35    33    25    1
    36     8     5    1
    37    33    28    1
    38    14     9    1
    39    20    15   ar
    40    23    24    1
    41     3     4    1
