@<TRIPOS>MOLECULE
*****
 31 34 0 0 0
SMALL
GASTEIGER

@<TRIPOS>ATOM
      1 C         142.6064  143.9285  161.5055 C.ar    1  UNL1        0.1389
      2 C         142.7060  142.9842  162.6667 C.ar    1  UNL1        0.0553
      3 C         143.4603  141.6957  162.5230 C.ar    1  UNL1        0.1048
      4 N         144.1150  141.3514  161.2181 N.ar    1  UNL1       -0.2083
      5 C         144.0154  142.2957  160.0569 C.ar    1  UNL1        0.2539
      6 N         143.2611  143.5842  160.2007 N.ar    1  UNL1       -0.1948
      7 N         144.6702  141.9515  158.7520 N.ar    1  UNL1       -0.2008
      8 N         145.8196  142.6815  158.1226 N.ar    1  UNL1       -0.1673
      9 C         146.1502  141.9980  156.8290 C.ar    1  UNL1        0.0806
     10 C         147.2354  142.3969  155.8733 C.3     1  UNL1        0.0540
     11 C         145.2052  140.8456  156.6588 C.ar    1  UNL1        0.0313
     12 C         144.2905  140.8169  157.8472 C.ar    1  UNL1        0.0651
     13 C         143.1894  139.8273  158.0886 C.3     1  UNL1        0.0523
     14 C         143.5599  140.7514  163.6843 C.ar    1  UNL1        0.1005
     15 C         144.7087  139.7910  163.7735 C.ar    1  UNL1        0.0208
     16 C         144.8083  138.8467  164.9347 C.ar    1  UNL1        0.0045
     17 C         143.7592  138.8628  166.0067 C.ar    1  UNL1        0.0343
     18 C         142.6104  139.8232  165.9174 C.ar    1  UNL1        0.1318
     19 N         142.5108  140.7675  164.7562 N.ar    1  UNL1       -0.2292
     20 N         141.5613  139.8394  166.9893 N.pl3   1  UNL1       -0.2904
     21 C         140.1092  139.7776  166.6185 C.3     1  UNL1        0.1095
     22 C         139.0600  139.7937  167.6904 C.3     1  UNL1        0.0939
     23 N         139.4630  139.8716  169.1332 N.3     1  UNL1       -0.2686
     24 C         138.4138  139.8878  170.2051 C.3     1  UNL1        0.0897
     25 C         140.9151  139.9334  169.5040 C.3     1  UNL1        0.0939
     26 C         141.9643  139.9173  168.4321 C.3     1  UNL1        0.1095
     27 C         139.6081  146.5261  161.6181 C.3     1  UNL1        0.0950
     28 C         140.3624  145.2376  161.4744 C.2     1  UNL1        0.2277
     29 O         139.6271  143.9695  161.1558 O.2     1  UNL1       -0.2747
     30 N         141.8520  145.2170  161.6493 N.am    1  UNL1       -0.2692
     31 H         142.3346  146.0493  161.8584 H       1  UNL1        0.1563
@<TRIPOS>BOND
     1    27    28    1
     2    28    29    2
     3    28    30   am
     4    30     1    1
     5     1     2   ar
     6     2     3   ar
     7     3    14    1
     8    14    15   ar
     9    15    16   ar
    10    16    17   ar
    11    17    18   ar
    12    18    20    1
    13    20    21    1
    14    21    22    1
    15    22    23    1
    16    23    24    1
    17    23    25    1
    18    25    26    1
    19    18    19   ar
    20     3     4   ar
    21     4     5   ar
    22     5     7    1
    23     7     8   ar
    24     8     9   ar
    25     9    10    1
    26     9    11   ar
    27    11    12   ar
    28    12    13    1
    29     5     6   ar
    30     6     1   ar
    31    19    14   ar
    32    12     7   ar
    33    26    20    1
    34    30    31    1
@<TRIPOS>MOLECULE
*****
 31 34 0 0 0
SMALL
GASTEIGER

@<TRIPOS>ATOM
      1 C         140.4050  137.4800  156.2059 C.ar    1  UNL1        0.1389
      2 C         141.2308  138.6960  156.5048 C.ar    1  UNL1        0.0553
      3 C         142.6979  138.5562  156.7841 C.ar    1  UNL1        0.1048
      4 N         143.3392  137.2003  156.7645 N.ar    1  UNL1       -0.2083
      5 C         142.5134  135.9844  156.4657 C.ar    1  UNL1        0.2539
      6 N         141.0462  136.1242  156.1863 N.ar    1  UNL1       -0.1948
      7 N         143.1546  134.6284  156.4461 N.ar    1  UNL1       -0.2008
      8 N         143.9111  133.9945  157.5757 N.ar    1  UNL1       -0.1673
      9 C         144.3760  132.6427  157.1213 C.ar    1  UNL1        0.0806
     10 C         145.1706  131.6643  157.9345 C.3     1  UNL1        0.0540
     11 C         143.9069  132.4412  155.7108 C.ar    1  UNL1        0.0313
     12 C         143.1520  133.6684  155.2936 C.ar    1  UNL1        0.0651
     13 C         142.5077  133.8956  153.9582 C.3     1  UNL1        0.0523
     14 C         143.5237  139.7722  157.0830 C.ar    1  UNL1        0.1005
     15 C         144.6425  140.1635  156.1637 C.ar    1  UNL1        0.0208
     16 C         145.4683  141.3795  156.4625 C.ar    1  UNL1        0.0045
     17 C         145.1754  142.2043  157.6807 C.ar    1  UNL1        0.0343
     18 C         144.0566  141.8130  158.6001 C.ar    1  UNL1        0.1318
     19 N         143.2307  140.5969  158.3012 N.ar    1  UNL1       -0.2292
     20 N         143.7636  142.6377  159.8182 N.pl3   1  UNL1       -0.2904
     21 C         144.7565  142.6961  160.9410 C.3     1  UNL1        0.1095
     22 C         144.4636  143.5208  162.1592 C.3     1  UNL1        0.0939
     23 N         143.1776  144.2871  162.2547 N.3     1  UNL1       -0.2686
     24 C         142.8846  145.1118  163.4729 C.3     1  UNL1        0.0897
     25 C         142.1846  144.2286  161.1319 C.3     1  UNL1        0.0939
     26 C         142.4776  143.4039  159.9137 C.3     1  UNL1        0.1095
     27 C         136.9779  137.8051  154.2312 C.3     1  UNL1        0.0950
     28 C         138.4450  137.6653  154.5106 C.2     1  UNL1        0.2277
     29 O         139.4192  137.5708  153.3739 O.2     1  UNL1       -0.2747
     30 N         138.9379  137.6199  155.9265 N.am    1  UNL1       -0.2692
     31 H         138.2984  137.6819  156.6725 H       1  UNL1        0.1563
@<TRIPOS>BOND
     1    27    28    1
     2    28    29    2
     3    28    30   am
     4    30     1    1
     5     1     2   ar
     6     2     3   ar
     7     3    14    1
     8    14    15   ar
     9    15    16   ar
    10    16    17   ar
    11    17    18   ar
    12    18    20    1
    13    20    21    1
    14    21    22    1
    15    22    23    1
    16    23    24    1
    17    23    25    1
    18    25    26    1
    19    18    19   ar
    20     3     4   ar
    21     4     5   ar
    22     5     7    1
    23     7     8   ar
    24     8     9   ar
    25     9    10    1
    26     9    11   ar
    27    11    12   ar
    28    12    13    1
    29     5     6   ar
    30     6     1   ar
    31    19    14   ar
    32    12     7   ar
    33    26    20    1
    34    30    31    1
@<TRIPOS>MOLECULE
*****
 31 34 0 0 0
SMALL
GASTEIGER

@<TRIPOS>ATOM
      1 C         141.3093  141.3468  159.7344 C.ar    1  UNL1        0.1389
      2 C         141.8147  140.5378  158.5768 C.ar    1  UNL1        0.0553
      3 C         142.3761  139.1662  158.8086 C.ar    1  UNL1        0.1048
      4 N         142.4320  138.6037  160.1980 N.ar    1  UNL1       -0.2083
      5 C         141.9265  139.4126  161.3555 C.ar    1  UNL1        0.2539
      6 N         141.3651  140.7842  161.1238 N.ar    1  UNL1       -0.1948
      7 N         141.9824  138.8501  162.7450 N.ar    1  UNL1       -0.2008
      8 N         143.1050  139.0281  163.7238 N.ar    1  UNL1       -0.1673
      9 C         142.7419  138.2988  164.9833 C.ar    1  UNL1        0.0806
     10 C         143.5789  138.2133  166.2251 C.3     1  UNL1        0.0540
     11 C         141.3948  137.6701  164.7828 C.ar    1  UNL1        0.0313
     12 C         140.9254  138.0108  163.3995 C.ar    1  UNL1        0.0651
     13 C         139.6271  137.5866  162.7796 C.3     1  UNL1        0.0523
     14 C         142.8816  138.3572  157.6510 C.ar    1  UNL1        0.1005
     15 C         143.5077  139.0433  156.4731 C.ar    1  UNL1        0.0208
     16 C         144.0132  138.2344  155.3155 C.ar    1  UNL1        0.0045
     17 C         143.8925  136.7393  155.3357 C.ar    1  UNL1        0.0343
     18 C         143.2664  136.0533  156.5135 C.ar    1  UNL1        0.1318
     19 N         142.7609  136.8623  157.6712 N.ar    1  UNL1       -0.2292
     20 N         143.1458  134.5583  156.5337 N.pl3   1  UNL1       -0.2904
     21 C         142.0873  133.8802  155.7154 C.3     1  UNL1        0.1095
     22 C         141.9666  132.3852  155.7356 C.3     1  UNL1        0.0939
     23 N         142.9044  131.5683  156.5741 N.3     1  UNL1       -0.2686
     24 C         142.7838  130.0733  156.5944 C.3     1  UNL1        0.0897
     25 C         143.9629  132.2465  157.3925 C.3     1  UNL1        0.0939
     26 C         144.0836  133.7414  157.3723 C.3     1  UNL1        0.1095
     27 C         141.0244  145.3011  159.5552 C.3     1  UNL1        0.0950
     28 C         141.5858  143.9295  159.7870 C.2     1  UNL1        0.2277
     29 O         142.9851  143.7692  160.3032 O.2     1  UNL1       -0.2747
     30 N         140.7479  142.7183  159.5026 N.am    1  UNL1       -0.2692
     31 H         139.8296  142.8236  159.1638 H       1  UNL1        0.1563
@<TRIPOS>BOND
     1    27    28    1
     2    28    29    2
     3    28    30   am
     4    30     1    1
     5     1     2   ar
     6     2     3   ar
     7     3    14    1
     8    14    15   ar
     9    15    16   ar
    10    16    17   ar
    11    17    18   ar
    12    18    20    1
    13    20    21    1
    14    21    22    1
    15    22    23    1
    16    23    24    1
    17    23    25    1
    18    25    26    1
    19    18    19   ar
    20     3     4   ar
    21     4     5   ar
    22     5     7    1
    23     7     8   ar
    24     8     9   ar
    25     9    10    1
    26     9    11   ar
    27    11    12   ar
    28    12    13    1
    29     5     6   ar
    30     6     1   ar
    31    19    14   ar
    32    12     7   ar
    33    26    20    1
    34    30    31    1
@<TRIPOS>MOLECULE
*****
 31 34 0 0 0
SMALL
GASTEIGER

@<TRIPOS>ATOM
      1 C         137.5367  140.8443  156.4750 C.ar    1  UNL1        0.1389
      2 C         138.7931  140.1120  156.1075 C.ar    1  UNL1        0.0553
      3 C         139.8230  139.8158  157.1571 C.ar    1  UNL1        0.1048
      4 N         139.5965  140.2519  158.5742 N.ar    1  UNL1       -0.2083
      5 C         138.3401  140.9843  158.9418 C.ar    1  UNL1        0.2539
      6 N         137.3102  141.2804  157.8922 N.ar    1  UNL1       -0.1948
      7 N         138.1135  141.4204  160.3590 N.ar    1  UNL1       -0.2008
      8 N         138.1403  142.8335  160.8616 N.ar    1  UNL1       -0.1673
      9 C         137.8637  142.8066  162.3356 C.ar    1  UNL1        0.0806
     10 C         137.7967  143.9998  163.2421 C.3     1  UNL1        0.0540
     11 C         137.6659  141.3768  162.7441 C.ar    1  UNL1        0.0313
     12 C         137.8203  140.5202  161.5224 C.ar    1  UNL1        0.0651
     13 C         137.7021  139.0257  161.4730 C.3     1  UNL1        0.0523
     14 C         141.0794  139.0834  156.7895 C.ar    1  UNL1        0.1005
     15 C         142.3355  139.8493  156.4965 C.ar    1  UNL1        0.0208
     16 C         143.5919  139.1170  156.1289 C.ar    1  UNL1        0.0045
     17 C         143.5923  137.6188  156.0542 C.ar    1  UNL1        0.0343
     18 C         142.3362  136.8530  156.3472 C.ar    1  UNL1        0.1318
     19 N         141.0798  137.5853  156.7148 N.ar    1  UNL1       -0.2292
     20 N         142.3366  135.3549  156.2725 N.pl3   1  UNL1       -0.2904
     21 C         141.4191  134.6514  155.3168 C.3     1  UNL1        0.1095
     22 C         141.4194  133.1532  155.2421 C.3     1  UNL1        0.0939
     23 N         142.3372  132.3586  156.1231 N.3     1  UNL1       -0.2686
     24 C         142.3375  130.8605  156.0485 C.3     1  UNL1        0.0897
     25 C         143.2547  133.0621  157.0789 C.3     1  UNL1        0.0939
     26 C         143.2543  134.5602  157.1535 C.3     1  UNL1        0.1095
     27 C         134.0660  140.9601  154.5540 C.3     1  UNL1        0.0950
     28 C         135.0958  140.6639  155.6036 C.2     1  UNL1        0.2277
     29 O         134.7146  139.8912  156.8314 O.2     1  UNL1       -0.2747
     30 N         136.5069  141.1405  155.4254 N.am    1  UNL1       -0.2692
     31 H         136.7571  141.6477  154.6196 H       1  UNL1        0.1563
@<TRIPOS>BOND
     1    27    28    1
     2    28    29    2
     3    28    30   am
     4    30     1    1
     5     1     2   ar
     6     2     3   ar
     7     3    14    1
     8    14    15   ar
     9    15    16   ar
    10    16    17   ar
    11    17    18   ar
    12    18    20    1
    13    20    21    1
    14    21    22    1
    15    22    23    1
    16    23    24    1
    17    23    25    1
    18    25    26    1
    19    18    19   ar
    20     3     4   ar
    21     4     5   ar
    22     5     7    1
    23     7     8   ar
    24     8     9   ar
    25     9    10    1
    26     9    11   ar
    27    11    12   ar
    28    12    13    1
    29     5     6   ar
    30     6     1   ar
    31    19    14   ar
    32    12     7   ar
    33    26    20    1
    34    30    31    1
@<TRIPOS>MOLECULE
*****
 31 34 0 0 0
SMALL
GASTEIGER

@<TRIPOS>ATOM
      1 C         140.2675  142.3542  161.2731 C.ar    1  UNL1        0.1389
      2 C         140.1818  141.7230  159.9151 C.ar    1  UNL1        0.0553
      3 C         139.8242  140.2722  159.7836 C.ar    1  UNL1        0.1048
      4 N         139.5523  139.4526  161.0101 N.ar    1  UNL1       -0.2083
      5 C         139.6380  140.0838  162.3681 C.ar    1  UNL1        0.2539
      6 N         139.9955  141.5346  162.4996 N.ar    1  UNL1       -0.1948
      7 N         139.3660  139.2642  163.5946 N.ar    1  UNL1       -0.2008
      8 N         138.3821  139.5968  164.6769 N.ar    1  UNL1       -0.1673
      9 C         138.4382  138.5063  165.7054 C.ar    1  UNL1        0.0806
     10 C         137.6195  138.4349  166.9602 C.3     1  UNL1        0.0540
     11 C         139.4568  137.4999  165.2588 C.ar    1  UNL1        0.0313
     12 C         140.0302  137.9683  163.9542 C.ar    1  UNL1        0.0651
     13 C         141.0830  137.2643  163.1505 C.3     1  UNL1        0.0523
     14 C         139.7386  139.6410  158.4255 C.ar    1  UNL1        0.1005
     15 C         138.8332  140.2259  157.3824 C.ar    1  UNL1        0.0208
     16 C         138.7476  139.5948  156.0244 C.ar    1  UNL1        0.0045
     17 C         139.5673  138.3786  155.7094 C.ar    1  UNL1        0.0343
     18 C         140.4726  137.7937  156.7526 C.ar    1  UNL1        0.1318
     19 N         140.5583  138.4249  158.1107 N.ar    1  UNL1       -0.2292
     20 N         141.2923  136.5776  156.4377 N.pl3   1  UNL1       -0.2904
     21 C         140.8379  135.6214  155.3751 C.3     1  UNL1        0.1095
     22 C         141.6576  134.4052  155.0602 C.3     1  UNL1        0.0939
     23 N         142.9317  134.1453  155.8079 N.3     1  UNL1       -0.2686
     24 C         143.7514  132.9292  155.4930 C.3     1  UNL1        0.0897
     25 C         143.3861  135.1016  156.8706 C.3     1  UNL1        0.0939
     26 C         142.5664  136.3177  157.1854 C.3     1  UNL1        0.1095
     27 C         139.9318  146.2556  161.9183 C.3     1  UNL1        0.0950
     28 C         139.5742  144.8048  161.7868 C.2     1  UNL1        0.2277
     29 O         138.1657  144.3538  162.0375 O.2     1  UNL1       -0.2747
     30 N         140.6251  143.8050  161.4046 N.am    1  UNL1       -0.2692
     31 H         141.5495  144.1010  161.2401 H       1  UNL1        0.1563
@<TRIPOS>BOND
     1    27    28    1
     2    28    29    2
     3    28    30   am
     4    30     1    1
     5     1     2   ar
     6     2     3   ar
     7     3    14    1
     8    14    15   ar
     9    15    16   ar
    10    16    17   ar
    11    17    18   ar
    12    18    20    1
    13    20    21    1
    14    21    22    1
    15    22    23    1
    16    23    24    1
    17    23    25    1
    18    25    26    1
    19    18    19   ar
    20     3     4   ar
    21     4     5   ar
    22     5     7    1
    23     7     8   ar
    24     8     9   ar
    25     9    10    1
    26     9    11   ar
    27    11    12   ar
    28    12    13    1
    29     5     6   ar
    30     6     1   ar
    31    19    14   ar
    32    12     7   ar
    33    26    20    1
    34    30    31    1
@<TRIPOS>MOLECULE
*****
 31 34 0 0 0
SMALL
GASTEIGER

@<TRIPOS>ATOM
      1 C         143.9037  138.4006  155.7389 C.ar    1  UNL1        0.1389
      2 C         142.7307  139.0594  156.4023 C.ar    1  UNL1        0.0553
      3 C         141.7362  138.2319  157.1614 C.ar    1  UNL1        0.1048
      4 N         141.9147  136.7457  157.2572 N.ar    1  UNL1       -0.2083
      5 C         143.0876  136.0869  156.5939 C.ar    1  UNL1        0.2539
      6 N         144.0822  136.9143  155.8348 N.ar    1  UNL1       -0.1948
      7 N         143.2661  134.6006  156.6897 N.ar    1  UNL1       -0.2008
      8 N         144.2838  133.8871  157.5295 N.ar    1  UNL1       -0.1673
      9 C         144.1050  132.4124  157.3214 C.ar    1  UNL1        0.0806
     10 C         144.9126  131.3264  157.9682 C.3     1  UNL1        0.0540
     11 C         142.9768  132.2145  156.3529 C.ar    1  UNL1        0.0313
     12 C         142.4584  133.5669  155.9625 C.ar    1  UNL1        0.0651
     13 C         141.3302  133.8379  155.0118 C.3     1  UNL1        0.0523
     14 C         140.5632  138.8908  157.8248 C.ar    1  UNL1        0.1005
     15 C         139.6069  139.7132  157.0129 C.ar    1  UNL1        0.0208
     16 C         138.4340  140.3721  157.6762 C.ar    1  UNL1        0.0045
     17 C         138.2172  140.2086  159.1514 C.ar    1  UNL1        0.0343
     18 C         139.1735  139.3862  159.9634 C.ar    1  UNL1        0.1318
     19 N         140.3465  138.7273  159.3000 N.ar    1  UNL1       -0.2292
     20 N         138.9568  139.2227  161.4385 N.pl3   1  UNL1       -0.2904
     21 C         139.3875  137.9601  162.1244 C.3     1  UNL1        0.1095
     22 C         139.1708  137.7966  163.5997 C.3     1  UNL1        0.0939
     23 N         138.5234  138.8956  164.3890 N.3     1  UNL1       -0.2686
     24 C         138.3067  138.7320  165.8642 C.3     1  UNL1        0.0897
     25 C         138.0927  140.1582  163.7031 C.3     1  UNL1        0.0939
     26 C         138.3094  140.3217  162.2279 C.3     1  UNL1        0.1095
     27 C         146.6448  141.1503  154.9174 C.3     1  UNL1        0.0950
     28 C         145.6503  140.3229  155.6765 C.2     1  UNL1        0.2277
     29 O         145.4079  140.5904  157.1325 O.2     1  UNL1       -0.2747
     30 N         144.8982  139.2280  154.9798 N.am    1  UNL1       -0.2692
     31 H         145.0573  139.0524  154.0242 H       1  UNL1        0.1563
@<TRIPOS>BOND
     1    27    28    1
     2    28    29    2
     3    28    30   am
     4    30     1    1
     5     1     2   ar
     6     2     3   ar
     7     3    14    1
     8    14    15   ar
     9    15    16   ar
    10    16    17   ar
    11    17    18   ar
    12    18    20    1
    13    20    21    1
    14    21    22    1
    15    22    23    1
    16    23    24    1
    17    23    25    1
    18    25    26    1
    19    18    19   ar
    20     3     4   ar
    21     4     5   ar
    22     5     7    1
    23     7     8   ar
    24     8     9   ar
    25     9    10    1
    26     9    11   ar
    27    11    12   ar
    28    12    13    1
    29     5     6   ar
    30     6     1   ar
    31    19    14   ar
    32    12     7   ar
    33    26    20    1
    34    30    31    1
@<TRIPOS>MOLECULE
*****
 31 34 0 0 0
SMALL
GASTEIGER

@<TRIPOS>ATOM
      1 C         139.8000  142.8524  163.3110 C.ar    1  UNL1        0.1389
      2 C         140.5477  141.8694  162.4597 C.ar    1  UNL1        0.0553
      3 C         141.1162  140.6249  163.0745 C.ar    1  UNL1        0.1048
      4 N         140.9371  140.3634  164.5406 N.ar    1  UNL1       -0.2083
      5 C         140.1894  141.3463  165.3919 C.ar    1  UNL1        0.2539
      6 N         139.6208  142.5908  164.7771 N.ar    1  UNL1       -0.1948
      7 N         140.0102  141.0847  166.8580 N.ar    1  UNL1       -0.2008
      8 N         140.6192  141.8780  167.9760 N.ar    1  UNL1       -0.1673
      9 C         140.1760  141.2676  169.2725 C.ar    1  UNL1        0.0806
     10 C         140.5499  141.7441  170.6448 C.3     1  UNL1        0.0540
     11 C         139.2931  140.0970  168.9558 C.ar    1  UNL1        0.0313
     12 C         139.1907  139.9840  167.4636 C.ar    1  UNL1        0.0651
     13 C         138.4064  138.9515  166.7094 C.3     1  UNL1        0.0523
     14 C         141.8640  139.6420  162.2231 C.ar    1  UNL1        0.1005
     15 C         143.1121  138.9945  162.7455 C.ar    1  UNL1        0.0208
     16 C         143.8599  138.0116  161.8942 C.ar    1  UNL1        0.0045
     17 C         143.3594  137.6761  160.5204 C.ar    1  UNL1        0.0343
     18 C         142.1113  138.3236  159.9980 C.ar    1  UNL1        0.1318
     19 N         141.3635  139.3066  160.8494 N.ar    1  UNL1       -0.2292
     20 N         141.6108  137.9882  158.6244 N.pl3   1  UNL1       -0.2904
     21 C         140.2127  138.3562  158.2250 C.3     1  UNL1        0.1095
     22 C         139.7121  138.0208  156.8512 C.3     1  UNL1        0.0939
     23 N         140.6099  137.3173  155.8770 N.3     1  UNL1       -0.2686
     24 C         140.1095  136.9819  154.5033 C.3     1  UNL1        0.0897
     25 C         142.0082  136.9493  156.2764 C.3     1  UNL1        0.0939
     26 C         142.5086  137.2847  157.6501 C.3     1  UNL1        0.1095
     27 C         139.5672  146.4860  161.7322 C.3     1  UNL1        0.0950
     28 C         140.1358  145.2414  162.3469 C.2     1  UNL1        0.2277
     29 O         141.6088  145.1416  162.6124 O.2     1  UNL1       -0.2747
     30 N         139.2314  144.0969  162.6962 N.am    1  UNL1       -0.2692
     31 H         138.2647  144.1624  162.5220 H       1  UNL1        0.1563
@<TRIPOS>BOND
     1    27    28    1
     2    28    29    2
     3    28    30   am
     4    30     1    1
     5     1     2   ar
     6     2     3   ar
     7     3    14    1
     8    14    15   ar
     9    15    16   ar
    10    16    17   ar
    11    17    18   ar
    12    18    20    1
    13    20    21    1
    14    21    22    1
    15    22    23    1
    16    23    24    1
    17    23    25    1
    18    25    26    1
    19    18    19   ar
    20     3     4   ar
    21     4     5   ar
    22     5     7    1
    23     7     8   ar
    24     8     9   ar
    25     9    10    1
    26     9    11   ar
    27    11    12   ar
    28    12    13    1
    29     5     6   ar
    30     6     1   ar
    31    19    14   ar
    32    12     7   ar
    33    26    20    1
    34    30    31    1
@<TRIPOS>MOLECULE
*****
 31 34 0 0 0
SMALL
GASTEIGER

@<TRIPOS>ATOM
      1 C         141.7794  138.7305  157.5199 C.ar    1  UNL1        0.1389
      2 C         140.7223  139.4610  156.7463 C.ar    1  UNL1        0.0553
      3 C         139.4195  139.8107  157.4024 C.ar    1  UNL1        0.1048
      4 N         139.1739  139.4298  158.8323 N.ar    1  UNL1       -0.2083
      5 C         140.2311  138.6993  159.6060 C.ar    1  UNL1        0.2539
      6 N         141.5339  138.3496  158.9498 N.ar    1  UNL1       -0.1948
      7 N         139.9856  138.3184  161.0359 N.ar    1  UNL1       -0.2008
      8 N         140.9812  137.6874  161.9637 N.ar    1  UNL1       -0.1673
      9 C         140.3123  137.4806  163.2903 C.ar    1  UNL1        0.0806
     10 C         140.9419  136.8767  164.5105 C.3     1  UNL1        0.0540
     11 C         138.9033  137.9838  163.1824 C.ar    1  UNL1        0.0313
     12 C         138.7014  138.5015  161.7892 C.ar    1  UNL1        0.0651
     13 C         137.4373  139.0978  161.2447 C.3     1  UNL1        0.0523
     14 C         138.3623  140.5413  156.6287 C.ar    1  UNL1        0.1005
     15 C         138.7540  141.5838  155.6239 C.ar    1  UNL1        0.0208
     16 C         137.6969  142.3144  154.8501 C.ar    1  UNL1        0.0045
     17 C         136.2480  142.0024  155.0812 C.ar    1  UNL1        0.0343
     18 C         135.8562  140.9599  156.0860 C.ar    1  UNL1        0.1318
     19 N         136.9134  140.2293  156.8598 N.ar    1  UNL1       -0.2292
     20 N         134.4074  140.6479  156.3171 N.pl3   1  UNL1       -0.2904
     21 C         134.0116  139.6694  157.3828 C.3     1  UNL1        0.1095
     22 C         132.5627  139.3574  157.6139 C.3     1  UNL1        0.0939
     23 N         131.5096  140.0240  156.7793 N.3     1  UNL1       -0.2686
     24 C         130.0607  139.7120  157.0104 C.3     1  UNL1        0.0897
     25 C         131.9054  141.0026  155.7135 C.3     1  UNL1        0.0939
     26 C         133.3543  141.3145  155.4825 C.3     1  UNL1        0.1095
     27 C         144.4904  136.7986  155.3593 C.3     1  UNL1        0.0950
     28 C         143.1876  137.1483  156.0155 C.2     1  UNL1        0.2277
     29 O         141.9903  136.2653  155.8233 O.2     1  UNL1       -0.2747
     30 N         143.0822  138.3808  156.8637 N.am    1  UNL1       -0.2692
     31 H         143.8680  138.9603  156.9898 H       1  UNL1        0.1563
@<TRIPOS>BOND
     1    27    28    1
     2    28    29    2
     3    28    30   am
     4    30     1    1
     5     1     2   ar
     6     2     3   ar
     7     3    14    1
     8    14    15   ar
     9    15    16   ar
    10    16    17   ar
    11    17    18   ar
    12    18    20    1
    13    20    21    1
    14    21    22    1
    15    22    23    1
    16    23    24    1
    17    23    25    1
    18    25    26    1
    19    18    19   ar
    20     3     4   ar
    21     4     5   ar
    22     5     7    1
    23     7     8   ar
    24     8     9   ar
    25     9    10    1
    26     9    11   ar
    27    11    12   ar
    28    12    13    1
    29     5     6   ar
    30     6     1   ar
    31    19    14   ar
    32    12     7   ar
    33    26    20    1
    34    30    31    1
@<TRIPOS>MOLECULE
*****
 31 34 0 0 0
SMALL
GASTEIGER

@<TRIPOS>ATOM
      1 C         140.8467  140.2256  159.4057 C.ar    1  UNL1        0.1389
      2 C         139.8902  140.1256  158.2546 C.ar    1  UNL1        0.0553
      3 C         138.7022  141.0388  158.1852 C.ar    1  UNL1        0.1048
      4 N         138.4707  142.0518  159.2668 N.ar    1  UNL1       -0.2083
      5 C         139.4272  142.1517  160.4180 C.ar    1  UNL1        0.2539
      6 N         140.6152  141.2386  160.4874 N.ar    1  UNL1       -0.1948
      7 N         139.1956  143.1648  161.4997 N.ar    1  UNL1       -0.2008
      8 N         138.3806  142.9577  162.7418 N.ar    1  UNL1       -0.1673
      9 C         138.4197  144.2277  163.5391 C.ar    1  UNL1        0.0806
     10 C         137.7391  144.4642  164.8547 C.3     1  UNL1        0.0540
     11 C         139.2590  145.2197  162.7896 C.ar    1  UNL1        0.0313
     12 C         139.7385  144.5628  161.5293 C.ar    1  UNL1        0.0651
     13 C         140.6083  145.1932  160.4824 C.3     1  UNL1        0.0523
     14 C         137.7457  140.9388  157.0340 C.ar    1  UNL1        0.1005
     15 C         138.2499  141.0650  155.6269 C.ar    1  UNL1        0.0208
     16 C         137.2935  140.9650  154.4757 C.ar    1  UNL1        0.0045
     17 C         135.8328  140.7389  154.7316 C.ar    1  UNL1        0.0343
     18 C         135.3287  140.6127  156.1387 C.ar    1  UNL1        0.1318
     19 N         136.2852  140.7127  157.2899 N.ar    1  UNL1       -0.2292
     20 N         133.8681  140.3866  156.3946 N.pl3   1  UNL1       -0.2904
     21 C         133.4332  139.3906  157.4284 C.3     1  UNL1        0.1095
     22 C         131.9726  139.1645  157.6843 C.3     1  UNL1        0.0939
     23 N         130.9468  139.9344  156.9065 N.3     1  UNL1       -0.2686
     24 C         129.4863  139.7083  157.1624 C.3     1  UNL1        0.0897
     25 C         131.3818  140.9305  155.8726 C.3     1  UNL1        0.0939
     26 C         132.8424  141.1566  155.6167 C.3     1  UNL1        0.1095
     27 C         143.2362  137.2588  160.5188 C.3     1  UNL1        0.0950
     28 C         142.0481  138.1719  160.4494 C.2     1  UNL1        0.2277
     29 O         140.8735  137.9445  161.3542 O.2     1  UNL1       -0.2747
     30 N         142.0347  139.3124  159.4752 N.am    1  UNL1       -0.2692
     31 H         142.8057  139.4617  158.8814 H       1  UNL1        0.1563
@<TRIPOS>BOND
     1    27    28    1
     2    28    29    2
     3    28    30   am
     4    30     1    1
     5     1     2   ar
     6     2     3   ar
     7     3    14    1
     8    14    15   ar
     9    15    16   ar
    10    16    17   ar
    11    17    18   ar
    12    18    20    1
    13    20    21    1
    14    21    22    1
    15    22    23    1
    16    23    24    1
    17    23    25    1
    18    25    26    1
    19    18    19   ar
    20     3     4   ar
    21     4     5   ar
    22     5     7    1
    23     7     8   ar
    24     8     9   ar
    25     9    10    1
    26     9    11   ar
    27    11    12   ar
    28    12    13    1
    29     5     6   ar
    30     6     1   ar
    31    19    14   ar
    32    12     7   ar
    33    26    20    1
    34    30    31    1
