@<TRIPOS>MOLECULE
*****
 36 38 0 0 0
SMALL
GASTEIGER

@<TRIPOS>ATOM
      1 C         140.4402  144.4476  164.2691 C.3     1  UNL1        0.1102
      2 C         141.8765  144.4367  163.8369 C.3     1  UNL1        0.0296
      3 C         142.8589  143.5334  164.5218 C.3     1  UNL1        0.0730
      4 N         142.4049  142.6411  165.6388 N.3     1  UNL1       -0.2689
      5 C         140.9685  142.6521  166.0710 C.3     1  UNL1        0.0730
      6 C         139.9862  143.5553  165.3861 C.3     1  UNL1        0.0296
      7 C         138.9860  144.8125  164.3193 C.2     1  UNL1        0.3177
      8 O         138.3860  145.3289  165.5934 O.2     1  UNL1       -0.2501
      9 C         137.7113  143.2955  162.6389 C.3     1  UNL1        0.2556
     10 O         138.1320  144.6609  163.0956 O.3     1  UNL1       -0.4444
     11 C         140.3892  145.4666  163.1695 C.3     1  UNL1        0.1002
     12 N         140.9543  145.1412  161.8186 N.am    1  UNL1       -0.3003
     13 C         140.3213  145.7111  160.5838 C.2     1  UNL1        0.2461
     14 O         139.1233  146.6062  160.6999 O.2     1  UNL1       -0.2701
     15 H         141.7405  144.5537  161.7425 H       1  UNL1        0.1498
     16 C         140.8863  145.3857  159.2330 C.ar    1  UNL1        0.0594
     17 C         140.3248  146.0427  158.0070 C.ar    1  UNL1        0.0416
     18 C         140.8899  145.7174  156.6562 C.ar    1  UNL1        0.1419
     19 C         142.0165  144.7350  156.5312 C.ar    1  UNL1        0.0738
     20 C         142.5781  144.0779  157.7572 C.ar    1  UNL1        0.1419
     21 C         142.0130  144.4033  159.1081 C.ar    1  UNL1        0.0416
     22 O         140.3283  146.3744  155.4302 O.3     1  UNL1       -0.4713
     23 C         138.8745  146.7397  155.3742 C.3     1  UNL1        0.2525
     24 O         143.7047  143.0956  157.6323 O.3     1  UNL1       -0.4713
     25 C         143.6225  141.9837  156.6288 C.3     1  UNL1        0.2525
     26 C         143.3873  141.7379  166.3237 C.3     1  UNL1        0.0991
     27 C         143.0980  141.2233  167.7026 C.ar    1  UNL1       -0.0022
     28 C         143.2524  142.1285  168.8887 C.ar    1  UNL1       -0.0030
     29 C         142.9632  141.6140  170.2677 C.ar    1  UNL1       -0.0003
     30 C         142.5194  140.1941  170.4606 C.ar    1  UNL1       -0.0001
     31 C         142.3650  139.2889  169.2745 C.ar    1  UNL1        0.0036
     32 C         142.6542  139.8035  167.8956 C.ar    1  UNL1        0.0688
     33 C         142.4998  138.8983  166.7095 C.3     1  UNL1        0.4183
     34 F         142.3455  137.9930  165.5235 F       1  UNL1       -0.1659
     35 F         143.9150  138.4316  166.8815 F       1  UNL1       -0.1659
     36 F         141.0847  139.3649  166.5376 F       1  UNL1       -0.1659
@<TRIPOS>BOND
     1     9    10    1
     2    10     7    1
     3     7     8    2
     4     7     1    1
     5     1    11    1
     6    11    12    1
     7    12    13   am
     8    13    14    2
     9    13    16    1
    10    16    17   ar
    11    17    18   ar
    12    18    22    1
    13    22    23    1
    14    18    19   ar
    15    19    20   ar
    16    20    24    1
    17    24    25    1
    18    20    21   ar
    19     1     2    1
    20     2     3    1
    21     3     4    1
    22     4    26    1
    23    26    27    1
    24    27    28   ar
    25    28    29   ar
    26    29    30   ar
    27    30    31   ar
    28    31    32   ar
    29    32    33    1
    30    33    34    1
    31    33    35    1
    32    33    36    1
    33     4     5    1
    34     5     6    1
    35     6     1    1
    36    21    16   ar
    37    32    27   ar
    38    12    15    1
@<TRIPOS>MOLECULE
*****
 36 38 0 0 0
SMALL
GASTEIGER

@<TRIPOS>ATOM
      1 C         140.4210  144.3526  164.2168 C.3     1  UNL1        0.1102
      2 C         141.8532  144.3335  163.7715 C.3     1  UNL1        0.0296
      3 C         142.8442  143.4504  164.4701 C.3     1  UNL1        0.0730
      4 N         142.4030  142.5865  165.6142 N.3     1  UNL1       -0.2689
      5 C         140.9708  142.6055  166.0596 C.3     1  UNL1        0.0730
      6 C         139.9798  143.4886  165.3609 C.3     1  UNL1        0.0296
      7 C         138.9666  144.7155  164.2715 C.2     1  UNL1        0.3177
      8 O         138.3685  145.2262  165.5488 O.2     1  UNL1       -0.2501
      9 C         137.6846  143.2040  162.5917 C.3     1  UNL1        0.2556
     10 O         138.1103  144.5677  163.0489 O.3     1  UNL1       -0.4444
     11 C         140.3572  145.3425  163.0918 C.3     1  UNL1        0.1002
     12 N         140.8426  144.9577  161.7257 N.am    1  UNL1       -0.3003
     13 C         140.2584  145.6139  160.5098 C.2     1  UNL1        0.2461
     14 O         139.1889  146.6548  160.6601 O.2     1  UNL1       -0.2701
     15 H         141.5445  144.2745  161.6270 H       1  UNL1        0.1498
     16 C         140.7438  145.2290  159.1437 C.ar    1  UNL1        0.0594
     17 C         141.8606  144.2388  158.9959 C.ar    1  UNL1        0.0416
     18 C         142.3460  143.8539  157.6298 C.ar    1  UNL1        0.1419
     19 C         141.7145  144.4594  156.4114 C.ar    1  UNL1        0.0738
     20 C         140.5976  145.4497  156.5591 C.ar    1  UNL1        0.1419
     21 C         140.1122  145.8345  157.9252 C.ar    1  UNL1        0.0416
     22 O         143.4629  142.8636  157.4821 O.3     1  UNL1       -0.4713
     23 C         144.5118  142.7515  158.5485 C.3     1  UNL1        0.2525
     24 O         139.9660  146.0552  155.3407 O.3     1  UNL1       -0.4713
     25 C         140.8284  146.6218  154.2520 C.3     1  UNL1        0.2525
     26 C         143.3940  141.7034  166.3129 C.3     1  UNL1        0.0991
     27 C         143.1088  141.2060  167.6989 C.ar    1  UNL1       -0.0022
     28 C         143.2816  142.1214  168.8746 C.ar    1  UNL1       -0.0030
     29 C         142.9964  141.6240  170.2608 C.ar    1  UNL1       -0.0003
     30 C         142.5384  140.2112  170.4712 C.ar    1  UNL1       -0.0001
     31 C         142.3657  139.2958  169.2955 C.ar    1  UNL1        0.0036
     32 C         142.6508  139.7932  167.9094 C.ar    1  UNL1        0.0688
     33 C         142.4781  138.8778  166.7337 C.3     1  UNL1        0.4183
     34 F         142.3054  137.9624  165.5580 F       1  UNL1       -0.1659
     35 F         143.8795  138.3759  166.9187 F       1  UNL1       -0.1659
     36 F         141.0767  139.3798  166.5488 F       1  UNL1       -0.1659
@<TRIPOS>BOND
     1     9    10    1
     2    10     7    1
     3     7     8    2
     4     7     1    1
     5     1    11    1
     6    11    12    1
     7    12    13   am
     8    13    14    2
     9    13    16    1
    10    16    17   ar
    11    17    18   ar
    12    18    22    1
    13    22    23    1
    14    18    19   ar
    15    19    20   ar
    16    20    24    1
    17    24    25    1
    18    20    21   ar
    19     1     2    1
    20     2     3    1
    21     3     4    1
    22     4    26    1
    23    26    27    1
    24    27    28   ar
    25    28    29   ar
    26    29    30   ar
    27    30    31   ar
    28    31    32   ar
    29    32    33    1
    30    33    34    1
    31    33    35    1
    32    33    36    1
    33     4     5    1
    34     5     6    1
    35     6     1    1
    36    21    16   ar
    37    32    27   ar
    38    12    15    1
@<TRIPOS>MOLECULE
*****
 36 38 0 0 0
SMALL
GASTEIGER

@<TRIPOS>ATOM
      1 C         142.1168  144.1676  163.4960 C.3     1  UNL1        0.1102
      2 C         140.8430  144.7579  164.0243 C.3     1  UNL1        0.0296
      3 C         140.2029  144.1828  165.2529 C.3     1  UNL1        0.0730
      4 N         140.8366  143.0174  165.9533 N.3     1  UNL1       -0.2689
      5 C         142.1103  142.4272  165.4250 C.3     1  UNL1        0.0730
      6 C         142.7505  143.0023  164.1964 C.3     1  UNL1        0.0296
      7 C         143.3151  143.9567  162.6187 C.2     1  UNL1        0.3177
      8 O         144.3569  145.0295  162.5014 O.2     1  UNL1       -0.2501
      9 C         144.3598  142.6196  160.6512 C.3     1  UNL1        0.2556
     10 O         143.4715  142.6730  161.8587 O.3     1  UNL1       -0.4444
     11 C         141.8993  145.2597  162.4910 C.3     1  UNL1        0.1002
     12 N         141.6848  144.9177  161.0464 N.am    1  UNL1       -0.3003
     13 C         140.4405  145.3746  160.3442 C.2     1  UNL1        0.2461
     14 O         139.4107  146.1736  161.0867 O.2     1  UNL1       -0.2701
     15 H         142.3606  144.3933  160.5591 H       1  UNL1        0.1498
     16 C         140.2260  145.0326  158.8996 C.ar    1  UNL1        0.0594
     17 C         140.6308  146.0040  157.8307 C.ar    1  UNL1        0.0416
     18 C         140.4163  145.6619  156.3861 C.ar    1  UNL1        0.1419
     19 C         139.7970  144.3485  156.0103 C.ar    1  UNL1        0.0738
     20 C         139.3921  143.3770  157.0791 C.ar    1  UNL1        0.1419
     21 C         139.6066  143.7191  158.5238 C.ar    1  UNL1        0.0416
     22 O         140.8212  146.6334  155.3172 O.3     1  UNL1       -0.4713
     23 C         139.7750  147.4112  154.5753 C.3     1  UNL1        0.2525
     24 O         138.7727  142.0636  156.7033 O.3     1  UNL1       -0.4713
     25 C         137.3388  141.7855  157.0447 C.3     1  UNL1        0.2525
     26 C         140.1965  142.4424  167.1819 C.3     1  UNL1        0.0991
     27 C         141.0336  141.7206  168.1959 C.ar    1  UNL1       -0.0022
     28 C         142.2878  142.3543  168.7209 C.ar    1  UNL1       -0.0030
     29 C         143.1250  141.6325  169.7350 C.ar    1  UNL1       -0.0003
     30 C         142.7080  140.2772  170.2240 C.ar    1  UNL1       -0.0001
     31 C         141.4538  139.6436  169.6990 C.ar    1  UNL1        0.0036
     32 C         140.6167  140.3653  168.6850 C.ar    1  UNL1        0.0688
     33 C         139.3625  139.7317  168.1600 C.3     1  UNL1        0.4183
     34 F         138.1084  139.0981  167.6349 F       1  UNL1       -0.1659
     35 F         140.1044  139.2751  166.9388 F       1  UNL1       -0.1659
     36 F         138.6206  140.1883  169.3811 F       1  UNL1       -0.1659
@<TRIPOS>BOND
     1     9    10    1
     2    10     7    1
     3     7     8    2
     4     7     1    1
     5     1    11    1
     6    11    12    1
     7    12    13   am
     8    13    14    2
     9    13    16    1
    10    16    17   ar
    11    17    18   ar
    12    18    22    1
    13    22    23    1
    14    18    19   ar
    15    19    20   ar
    16    20    24    1
    17    24    25    1
    18    20    21   ar
    19     1     2    1
    20     2     3    1
    21     3     4    1
    22     4    26    1
    23    26    27    1
    24    27    28   ar
    25    28    29   ar
    26    29    30   ar
    27    30    31   ar
    28    31    32   ar
    29    32    33    1
    30    33    34    1
    31    33    35    1
    32    33    36    1
    33     4     5    1
    34     5     6    1
    35     6     1    1
    36    21    16   ar
    37    32    27   ar
    38    12    15    1
@<TRIPOS>MOLECULE
*****
 36 38 0 0 0
SMALL
GASTEIGER

@<TRIPOS>ATOM
      1 C         141.9755  143.9863  163.7886 C.3     1  UNL1        0.1102
      2 C         140.6405  144.4380  164.3021 C.3     1  UNL1        0.0296
      3 C         140.0219  143.7549  165.4856 C.3     1  UNL1        0.0730
      4 N         140.7383  142.6199  166.1555 N.3     1  UNL1       -0.2689
      5 C         142.0733  142.1682  165.6419 C.3     1  UNL1        0.0730
      6 C         142.6919  142.8513  164.4584 C.3     1  UNL1        0.0296
      7 C         143.2107  143.9208  162.9400 C.2     1  UNL1        0.3177
      8 O         144.1165  145.1123  162.8409 O.2     1  UNL1       -0.2501
      9 C         144.8330  142.5563  161.4380 C.3     1  UNL1        0.2556
     10 O         143.5399  142.6639  162.1905 O.3     1  UNL1       -0.4444
     11 C         141.6880  145.0985  162.8240 C.3     1  UNL1        0.1002
     12 N         141.5265  144.8009  161.3627 N.am    1  UNL1       -0.3003
     13 C         140.3153  145.2922  160.6267 C.2     1  UNL1        0.2461
     14 O         139.2657  146.0809  161.3519 O.2     1  UNL1       -0.2701
     15 H         142.2155  144.2832  160.8867 H       1  UNL1        0.1498
     16 C         140.1538  144.9946  159.1654 C.ar    1  UNL1        0.0594
     17 C         139.8371  143.5995  158.7146 C.ar    1  UNL1        0.0416
     18 C         139.6756  143.3019  157.2533 C.ar    1  UNL1        0.1419
     19 C         139.8308  144.3995  156.2428 C.ar    1  UNL1        0.0738
     20 C         140.1475  145.7948  156.6936 C.ar    1  UNL1        0.1419
     21 C         140.3090  146.0923  158.1549 C.ar    1  UNL1        0.0416
     22 O         139.3590  141.9067  156.8025 O.3     1  UNL1       -0.4713
     23 C         138.0908  141.6312  156.0504 C.3     1  UNL1        0.2525
     24 O         140.3026  146.8924  155.6831 O.3     1  UNL1       -0.4713
     25 C         139.0983  147.6494  155.2071 C.3     1  UNL1        0.2525
     26 C         140.1197  141.9367  167.3389 C.3     1  UNL1        0.0991
     27 C         140.9896  141.2336  168.3383 C.ar    1  UNL1       -0.0022
     28 C         141.6613  139.9434  167.9716 C.ar    1  UNL1       -0.0030
     29 C         142.5312  139.2402  168.9710 C.ar    1  UNL1       -0.0003
     30 C         142.7294  139.8271  170.3371 C.ar    1  UNL1       -0.0001
     31 C         142.0577  141.1172  170.7038 C.ar    1  UNL1        0.0036
     32 C         141.1878  141.8204  169.7044 C.ar    1  UNL1        0.0688
     33 C         140.5161  143.1105  170.0711 C.3     1  UNL1        0.4183
     34 F         139.8444  144.4006  170.4378 F       1  UNL1       -0.1659
     35 F         141.7931  143.8510  169.8047 F       1  UNL1       -0.1659
     36 F         139.2392  142.3699  170.3376 F       1  UNL1       -0.1659
@<TRIPOS>BOND
     1     9    10    1
     2    10     7    1
     3     7     8    2
     4     7     1    1
     5     1    11    1
     6    11    12    1
     7    12    13   am
     8    13    14    2
     9    13    16    1
    10    16    17   ar
    11    17    18   ar
    12    18    22    1
    13    22    23    1
    14    18    19   ar
    15    19    20   ar
    16    20    24    1
    17    24    25    1
    18    20    21   ar
    19     1     2    1
    20     2     3    1
    21     3     4    1
    22     4    26    1
    23    26    27    1
    24    27    28   ar
    25    28    29   ar
    26    29    30   ar
    27    30    31   ar
    28    31    32   ar
    29    32    33    1
    30    33    34    1
    31    33    35    1
    32    33    36    1
    33     4     5    1
    34     5     6    1
    35     6     1    1
    36    21    16   ar
    37    32    27   ar
    38    12    15    1
@<TRIPOS>MOLECULE
*****
 36 38 0 0 0
SMALL
GASTEIGER

@<TRIPOS>ATOM
      1 C         142.3218  143.8743  163.6349 C.3     1  UNL1        0.1102
      2 C         141.0359  144.2935  164.2833 C.3     1  UNL1        0.0296
      3 C         140.5496  143.5844  165.5124 C.3     1  UNL1        0.0730
      4 N         141.3494  142.4561  166.0932 N.3     1  UNL1       -0.2689
      5 C         142.6354  142.0369  165.4448 C.3     1  UNL1        0.0730
      6 C         143.1216  142.7460  164.2157 C.3     1  UNL1        0.0296
      7 C         143.4684  143.8432  162.6682 C.2     1  UNL1        0.3177
      8 O         144.3955  145.0179  162.5663 O.2     1  UNL1       -0.2501
      9 C         144.7438  142.6603  160.7385 C.3     1  UNL1        0.2556
     10 O         143.6878  142.6374  161.8035 O.3     1  UNL1       -0.4444
     11 C         141.9202  144.9918  162.7185 C.3     1  UNL1        0.1002
     12 N         142.0252  144.8175  161.2324 N.am    1  UNL1       -0.3003
     13 C         140.9072  145.2746  160.3428 C.2     1  UNL1        0.2461
     14 O         139.6844  145.9060  160.9394 O.2     1  UNL1       -0.2701
     15 H         142.8278  144.4031  160.8408 H       1  UNL1        0.1498
     16 C         141.0121  145.1003  158.8567 C.ar    1  UNL1        0.0594
     17 C         141.8410  143.9866  158.2889 C.ar    1  UNL1        0.0416
     18 C         141.9459  143.8123  156.8027 C.ar    1  UNL1        0.1419
     19 C         141.2220  144.7517  155.8844 C.ar    1  UNL1        0.0738
     20 C         140.3930  145.8655  156.4522 C.ar    1  UNL1        0.1419
     21 C         140.2881  146.0398  157.9384 C.ar    1  UNL1        0.0416
     22 O         142.7749  142.6984  156.2349 O.3     1  UNL1       -0.4713
     23 C         142.6387  141.3083  156.7817 C.3     1  UNL1        0.2525
     24 O         139.6691  146.8049  155.5339 O.3     1  UNL1       -0.4713
     25 C         140.2958  147.2150  154.2343 C.3     1  UNL1        0.2525
     26 C         140.8631  141.7470  167.3223 C.3     1  UNL1        0.0991
     27 C         139.7800  140.7151  167.2137 C.ar    1  UNL1       -0.0022
     28 C         139.2190  140.3551  165.8699 C.ar    1  UNL1       -0.0030
     29 C         138.1358  139.3231  165.7613 C.ar    1  UNL1       -0.0003
     30 C         137.6135  138.6512  166.9965 C.ar    1  UNL1       -0.0001
     31 C         138.1745  139.0112  168.3403 C.ar    1  UNL1        0.0036
     32 C         139.2576  140.0431  168.4489 C.ar    1  UNL1        0.0688
     33 C         139.8186  140.4032  169.7927 C.3     1  UNL1        0.4183
     34 F         140.3796  140.7631  171.1364 F       1  UNL1       -0.1659
     35 F         140.9241  139.4081  169.5977 F       1  UNL1       -0.1659
     36 F         138.7132  141.3982  169.9876 F       1  UNL1       -0.1659
@<TRIPOS>BOND
     1     9    10    1
     2    10     7    1
     3     7     8    2
     4     7     1    1
     5     1    11    1
     6    11    12    1
     7    12    13   am
     8    13    14    2
     9    13    16    1
    10    16    17   ar
    11    17    18   ar
    12    18    22    1
    13    22    23    1
    14    18    19   ar
    15    19    20   ar
    16    20    24    1
    17    24    25    1
    18    20    21   ar
    19     1     2    1
    20     2     3    1
    21     3     4    1
    22     4    26    1
    23    26    27    1
    24    27    28   ar
    25    28    29   ar
    26    29    30   ar
    27    30    31   ar
    28    31    32   ar
    29    32    33    1
    30    33    34    1
    31    33    35    1
    32    33    36    1
    33     4     5    1
    34     5     6    1
    35     6     1    1
    36    21    16   ar
    37    32    27   ar
    38    12    15    1
@<TRIPOS>MOLECULE
*****
 36 38 0 0 0
SMALL
GASTEIGER

@<TRIPOS>ATOM
      1 C         142.2958  138.7738  163.6543 C.3     1  UNL1        0.1102
      2 C         143.6461  138.8699  164.3002 C.3     1  UNL1        0.0296
      3 C         143.7558  139.1117  165.7766 C.3     1  UNL1        0.0730
      4 N         142.5151  139.2573  166.6069 N.3     1  UNL1       -0.2689
      5 C         141.1648  139.1612  165.9610 C.3     1  UNL1        0.0730
      6 C         141.0551  138.9195  164.4847 C.3     1  UNL1        0.0296
      7 C         141.2502  138.6071  162.5918 C.2     1  UNL1        0.3177
      8 O         141.0982  137.2905  161.8892 O.2     1  UNL1       -0.2501
      9 C         139.2575  139.5671  161.2289 C.3     1  UNL1        0.2556
     10 O         140.3565  139.7567  162.2319 O.3     1  UNL1       -0.4444
     11 C         143.1734  138.5703  162.4550 C.3     1  UNL1        0.1002
     12 N         142.9779  139.4145  161.2306 N.am    1  UNL1       -0.3003
     13 C         143.8985  140.5674  160.9598 C.2     1  UNL1        0.2461
     14 O         145.0146  140.8760  161.9132 O.2     1  UNL1       -0.2701
     15 H         142.2453  139.2120  160.6048 H       1  UNL1        0.1498
     16 C         143.7031  141.4117  159.7354 C.ar    1  UNL1        0.0594
     17 C         143.1279  142.7914  159.8598 C.ar    1  UNL1        0.0416
     18 C         142.9324  143.6356  158.6354 C.ar    1  UNL1        0.1419
     19 C         143.3121  143.1002  157.2867 C.ar    1  UNL1        0.0738
     20 C         143.8873  141.7204  157.1623 C.ar    1  UNL1        0.1419
     21 C         144.0828  140.8761  158.3866 C.ar    1  UNL1        0.0416
     22 O         142.3572  145.0154  158.7598 O.3     1  UNL1       -0.4713
     23 C         140.8699  145.2084  158.7868 C.3     1  UNL1        0.2525
     24 O         144.2670  141.1849  155.8136 O.3     1  UNL1       -0.4713
     25 C         144.9887  139.8746  155.7029 C.3     1  UNL1        0.2525
     26 C         142.6248  139.4990  168.0833 C.3     1  UNL1        0.0991
     27 C         141.6986  140.4687  168.7554 C.ar    1  UNL1       -0.0022
     28 C         140.5718  139.9625  169.6065 C.ar    1  UNL1       -0.0030
     29 C         139.6455  140.9322  170.2787 C.ar    1  UNL1       -0.0003
     30 C         139.8458  142.4079  170.0997 C.ar    1  UNL1       -0.0001
     31 C         140.9726  142.9140  169.2485 C.ar    1  UNL1        0.0036
     32 C         141.8988  141.9444  168.5764 C.ar    1  UNL1        0.0688
     33 C         143.0255  142.4505  167.7252 C.3     1  UNL1        0.4183
     34 F         144.1521  142.9566  166.8740 F       1  UNL1       -0.1659
     35 F         142.1263  142.4332  166.5247 F       1  UNL1       -0.1659
     36 F         143.9247  142.4678  168.9257 F       1  UNL1       -0.1659
@<TRIPOS>BOND
     1     9    10    1
     2    10     7    1
     3     7     8    2
     4     7     1    1
     5     1    11    1
     6    11    12    1
     7    12    13   am
     8    13    14    2
     9    13    16    1
    10    16    17   ar
    11    17    18   ar
    12    18    22    1
    13    22    23    1
    14    18    19   ar
    15    19    20   ar
    16    20    24    1
    17    24    25    1
    18    20    21   ar
    19     1     2    1
    20     2     3    1
    21     3     4    1
    22     4    26    1
    23    26    27    1
    24    27    28   ar
    25    28    29   ar
    26    29    30   ar
    27    30    31   ar
    28    31    32   ar
    29    32    33    1
    30    33    34    1
    31    33    35    1
    32    33    36    1
    33     4     5    1
    34     5     6    1
    35     6     1    1
    36    21    16   ar
    37    32    27   ar
    38    12    15    1
@<TRIPOS>MOLECULE
*****
 36 38 0 0 0
SMALL
GASTEIGER

@<TRIPOS>ATOM
      1 C         139.2220  142.7216  163.6095 C.3     1  UNL1        0.1102
      2 C         139.9660  143.5247  164.6350 C.3     1  UNL1        0.0296
      3 C         140.2282  142.9470  165.9942 C.3     1  UNL1        0.0730
      4 N         139.7464  141.5662  166.3279 N.3     1  UNL1       -0.2689
      5 C         139.0025  140.7631  165.3025 C.3     1  UNL1        0.0730
      6 C         138.7403  141.3408  163.9432 C.3     1  UNL1        0.0296
      7 C         138.5663  142.3537  162.3115 C.2     1  UNL1        0.3177
      8 O         137.4702  143.2132  161.7549 O.2     1  UNL1       -0.2501
      9 C         138.2703  140.6893  160.3387 C.3     1  UNL1        0.2556
     10 O         139.0066  141.1263  161.5702 O.3     1  UNL1       -0.4444
     11 C         139.4761  143.9746  162.8250 C.3     1  UNL1        0.1002
     12 N         140.1784  143.9015  161.5016 N.am    1  UNL1       -0.3003
     13 C         140.1492  145.0777  160.5711 C.2     1  UNL1        0.2461
     14 O         139.4178  146.3269  160.9640 O.2     1  UNL1       -0.2701
     15 H         140.6584  143.0816  161.2437 H       1  UNL1        0.1498
     16 C         140.8515  145.0046  159.2477 C.ar    1  UNL1        0.0594
     17 C         142.0183  144.0793  159.0679 C.ar    1  UNL1        0.0416
     18 C         142.7206  144.0062  157.7445 C.ar    1  UNL1        0.1419
     19 C         142.2562  144.8584  156.6009 C.ar    1  UNL1        0.0738
     20 C         141.0893  145.7838  156.7806 C.ar    1  UNL1        0.1419
     21 C         140.3870  145.8569  158.1040 C.ar    1  UNL1        0.0416
     22 O         143.8875  143.0809  157.5648 O.3     1  UNL1       -0.4713
     23 C         144.1477  141.9981  158.5696 C.3     1  UNL1        0.2525
     24 O         140.6248  146.6360  155.6370 O.3     1  UNL1       -0.4713
     25 C         140.9333  146.2309  154.2261 C.3     1  UNL1        0.2525
     26 C         140.0086  140.9885  167.6872 C.3     1  UNL1        0.0991
     27 C         140.9933  141.6493  168.6057 C.ar    1  UNL1       -0.0022
     28 C         140.6006  142.8823  169.3644 C.ar    1  UNL1       -0.0030
     29 C         141.5853  143.5432  170.2830 C.ar    1  UNL1       -0.0003
     30 C         142.9626  142.9710  170.4429 C.ar    1  UNL1       -0.0001
     31 C         143.3552  141.7379  169.6843 C.ar    1  UNL1        0.0036
     32 C         142.3706  141.0772  168.7657 C.ar    1  UNL1        0.0688
     33 C         142.7632  139.8441  168.0071 C.3     1  UNL1        0.4183
     34 F         143.1559  138.6112  167.2484 F       1  UNL1       -0.1659
     35 F         143.1070  140.6872  166.8149 F       1  UNL1       -0.1659
     36 F         142.4195  139.0011  169.1992 F       1  UNL1       -0.1659
@<TRIPOS>BOND
     1     9    10    1
     2    10     7    1
     3     7     8    2
     4     7     1    1
     5     1    11    1
     6    11    12    1
     7    12    13   am
     8    13    14    2
     9    13    16    1
    10    16    17   ar
    11    17    18   ar
    12    18    22    1
    13    22    23    1
    14    18    19   ar
    15    19    20   ar
    16    20    24    1
    17    24    25    1
    18    20    21   ar
    19     1     2    1
    20     2     3    1
    21     3     4    1
    22     4    26    1
    23    26    27    1
    24    27    28   ar
    25    28    29   ar
    26    29    30   ar
    27    30    31   ar
    28    31    32   ar
    29    32    33    1
    30    33    34    1
    31    33    35    1
    32    33    36    1
    33     4     5    1
    34     5     6    1
    35     6     1    1
    36    21    16   ar
    37    32    27   ar
    38    12    15    1
@<TRIPOS>MOLECULE
*****
 36 38 0 0 0
SMALL
GASTEIGER

@<TRIPOS>ATOM
      1 C         142.2475  138.7389  163.6959 C.3     1  UNL1        0.1102
      2 C         143.6021  138.7823  164.3385 C.3     1  UNL1        0.0296
      3 C         143.7259  139.0417  165.8107 C.3     1  UNL1        0.0730
      4 N         142.4949  139.2576  166.6403 N.3     1  UNL1       -0.2689
      5 C         141.1403  139.2141  165.9976 C.3     1  UNL1        0.0730
      6 C         141.0165  138.9548  164.5254 C.3     1  UNL1        0.0296
      7 C         141.1932  138.6042  162.6374 C.2     1  UNL1        0.3177
      8 O         140.9726  137.2829  161.9624 O.2     1  UNL1       -0.2501
      9 C         139.2082  139.6240  161.3070 C.3     1  UNL1        0.2556
     10 O         140.3595  139.7907  162.2540 O.3     1  UNL1       -0.4444
     11 C         143.1123  138.4762  162.4988 C.3     1  UNL1        0.1002
     12 N         142.9390  139.2952  161.2541 N.am    1  UNL1       -0.3003
     13 C         143.8481  140.4586  160.9892 C.2     1  UNL1        0.2461
     14 O         144.9304  140.8030  161.9690 O.2     1  UNL1       -0.2701
     15 H         142.2287  139.0692  160.6110 H       1  UNL1        0.1498
     16 C         143.6748  141.2776  159.7446 C.ar    1  UNL1        0.0594
     17 C         143.9805  140.6784  158.4039 C.ar    1  UNL1        0.0416
     18 C         143.8072  141.4975  157.1592 C.ar    1  UNL1        0.1419
     19 C         143.3282  142.9157  157.2552 C.ar    1  UNL1        0.0738
     20 C         143.0226  143.5149  158.5960 C.ar    1  UNL1        0.1419
     21 C         143.1959  142.6959  159.8406 C.ar    1  UNL1        0.0416
     22 O         144.1128  140.8982  155.8185 O.3     1  UNL1       -0.4713
     23 C         144.8016  141.7196  154.7692 C.3     1  UNL1        0.2525
     24 O         142.5437  144.9331  158.6920 O.3     1  UNL1       -0.4713
     25 C         141.1766  145.2985  158.1943 C.3     1  UNL1        0.2525
     26 C         142.6186  139.5170  168.1125 C.3     1  UNL1        0.0991
     27 C         141.6940  140.4893  168.7830 C.ar    1  UNL1       -0.0022
     28 C         140.5631  139.9864  169.6305 C.ar    1  UNL1       -0.0030
     29 C         139.6384  140.9587  170.3012 C.ar    1  UNL1       -0.0003
     30 C         139.8447  142.4339  170.1243 C.ar    1  UNL1       -0.0001
     31 C         140.9756  142.9367  169.2768 C.ar    1  UNL1        0.0036
     32 C         141.9002  141.9644  168.6062 C.ar    1  UNL1        0.0688
     33 C         143.0311  142.4673  167.7587 C.3     1  UNL1        0.4183
     34 F         144.1619  142.9702  166.9112 F       1  UNL1       -0.1659
     35 F         142.1316  142.4669  166.5583 F       1  UNL1       -0.1659
     36 F         143.9305  142.4677  168.9591 F       1  UNL1       -0.1659
@<TRIPOS>BOND
     1     9    10    1
     2    10     7    1
     3     7     8    2
     4     7     1    1
     5     1    11    1
     6    11    12    1
     7    12    13   am
     8    13    14    2
     9    13    16    1
    10    16    17   ar
    11    17    18   ar
    12    18    22    1
    13    22    23    1
    14    18    19   ar
    15    19    20   ar
    16    20    24    1
    17    24    25    1
    18    20    21   ar
    19     1     2    1
    20     2     3    1
    21     3     4    1
    22     4    26    1
    23    26    27    1
    24    27    28   ar
    25    28    29   ar
    26    29    30   ar
    27    30    31   ar
    28    31    32   ar
    29    32    33    1
    30    33    34    1
    31    33    35    1
    32    33    36    1
    33     4     5    1
    34     5     6    1
    35     6     1    1
    36    21    16   ar
    37    32    27   ar
    38    12    15    1
@<TRIPOS>MOLECULE
*****
 36 38 0 0 0
SMALL
GASTEIGER

@<TRIPOS>ATOM
      1 C         139.4732  138.6760  163.5433 C.3     1  UNL1        0.1102
      2 C         140.5506  138.2349  164.4891 C.3     1  UNL1        0.0296
      3 C         140.5589  138.7361  165.9028 C.3     1  UNL1        0.0730
      4 N         139.4898  139.6785  166.3707 N.3     1  UNL1       -0.2689
      5 C         138.4124  140.1196  165.4249 C.3     1  UNL1        0.0730
      6 C         138.4041  139.6184  164.0112 C.3     1  UNL1        0.0296
      7 C         138.6702  138.8054  162.2829 C.2     1  UNL1        0.3177
      8 O         137.9060  137.6271  161.7561 O.2     1  UNL1       -0.2501
      9 C         137.8433  140.2376  160.2791 C.3     1  UNL1        0.2556
     10 O         138.6315  140.1132  161.5493 O.3     1  UNL1       -0.4444
     11 C         140.2634  137.7786  162.6377 C.3     1  UNL1        0.1002
     12 N         140.7480  138.2885  161.3129 N.am    1  UNL1       -0.3003
     13 C         142.2153  138.2910  161.0013 C.2     1  UNL1        0.2461
     14 O         143.1980  137.7836  162.0146 O.2     1  UNL1       -0.2701
     15 H         140.1030  138.6216  160.6478 H       1  UNL1        0.1498
     16 C         142.6999  138.8010  159.6765 C.ar    1  UNL1        0.0594
     17 C         143.2790  140.1806  159.5702 C.ar    1  UNL1        0.0416
     18 C         143.7635  140.6905  158.2454 C.ar    1  UNL1        0.1419
     19 C         143.6690  139.8209  157.0269 C.ar    1  UNL1        0.0738
     20 C         143.0899  138.4412  157.1332 C.ar    1  UNL1        0.1419
     21 C         142.6054  137.9313  158.4580 C.ar    1  UNL1        0.0416
     22 O         144.3426  142.0702  158.1391 O.3     1  UNL1       -0.4713
     23 C         143.4432  143.2686  158.2092 C.3     1  UNL1        0.2525
     24 O         142.9954  137.5716  155.9147 O.3     1  UNL1       -0.4713
     25 C         143.9140  136.3960  155.7592 C.3     1  UNL1        0.2525
     26 C         139.4981  140.1797  167.7845 C.3     1  UNL1        0.0991
     27 C         140.7882  140.6012  168.4232 C.ar    1  UNL1       -0.0022
     28 C         141.4337  139.7271  169.4573 C.ar    1  UNL1       -0.0030
     29 C         142.7239  140.1485  170.0961 C.ar    1  UNL1       -0.0003
     30 C         143.3684  141.4440  169.7008 C.ar    1  UNL1       -0.0001
     31 C         142.7229  142.3181  168.6667 C.ar    1  UNL1        0.0036
     32 C         141.4328  141.8966  168.0280 C.ar    1  UNL1        0.0688
     33 C         140.7872  142.7707  166.9938 C.3     1  UNL1        0.4183
     34 F         140.1417  143.6447  165.9597 F       1  UNL1       -0.1659
     35 F         141.5291  142.0406  165.9137 F       1  UNL1       -0.1659
     36 F         140.0454  143.5007  168.0739 F       1  UNL1       -0.1659
@<TRIPOS>BOND
     1     9    10    1
     2    10     7    1
     3     7     8    2
     4     7     1    1
     5     1    11    1
     6    11    12    1
     7    12    13   am
     8    13    14    2
     9    13    16    1
    10    16    17   ar
    11    17    18   ar
    12    18    22    1
    13    22    23    1
    14    18    19   ar
    15    19    20   ar
    16    20    24    1
    17    24    25    1
    18    20    21   ar
    19     1     2    1
    20     2     3    1
    21     3     4    1
    22     4    26    1
    23    26    27    1
    24    27    28   ar
    25    28    29   ar
    26    29    30   ar
    27    30    31   ar
    28    31    32   ar
    29    32    33    1
    30    33    34    1
    31    33    35    1
    32    33    36    1
    33     4     5    1
    34     5     6    1
    35     6     1    1
    36    21    16   ar
    37    32    27   ar
    38    12    15    1
