@<TRIPOS>MOLECULE
*****
 38 42 0 0 0
SMALL
GASTEIGER

@<TRIPOS>ATOM
      1 C         140.6975  138.8525  159.1827 C.3     1  UNL1        0.0929
      2 C         140.2574  140.2843  159.1035 C.3     1  UNL1        0.0427
      3 C         139.8889  140.7332  160.4865 C.3     1  UNL1        0.0927
      4 N         140.1012  139.5788  161.4205 N.pl3   1  UNL1       -0.3033
      5 C         140.6009  138.4164  160.6147 C.3     1  UNL1        0.1104
      6 C         139.8567  139.5855  162.9005 C.ar    1  UNL1        0.0878
      7 C         138.7144  138.8016  163.4754 C.ar    1  UNL1        0.1543
      8 F         137.8165  138.0111  162.5705 F       1  UNL1       -0.2028
      9 C         138.4699  138.8084  164.9553 C.ar    1  UNL1        0.0356
     10 C         139.3678  139.5989  165.8603 C.ar    1  UNL1        0.0580
     11 C         139.1233  139.6056  167.3402 C.ar    1  UNL1        0.1996
     12 O         137.9810  138.8218  167.9152 O.2     1  UNL1       -0.2864
     13 C         140.0212  140.3961  168.2451 C.ar    1  UNL1        0.0701
     14 C         141.1636  141.1800  167.6701 C.ar    1  UNL1        0.0801
     15 N         141.4080  141.1732  166.1902 N.ar    1  UNL1       -0.3270
     16 C         140.5101  140.3827  165.2853 C.ar    1  UNL1        0.0750
     17 C         140.7546  140.3760  163.8054 C.ar    1  UNL1        0.0890
     18 CL        141.8969  141.1598  163.2303 Cl      1  UNL1       -0.0794
     19 C         139.7767  140.4028  169.7250 C.2     1  UNL1        0.0774
     20 O         140.4279  139.3710  170.5975 O.co2   1  UNL1       -0.5444
     21 O         138.8810  141.4415  170.3326 O.co2   1  UNL1       -0.5444
     22 C         142.5503  141.9571  165.6152 C.3     1  UNL1        0.0857
     23 C         143.1018  143.2434  165.0755 C.3     1  UNL1        0.0245
     24 C         143.9774  142.0284  165.1590 C.3     1  UNL1        0.0245
     25 C         142.6059  137.9689  157.6572 C.2     1  UNL1        0.2246
     26 O         143.6014  138.7794  158.4331 O.2     1  UNL1       -0.2750
     27 N         141.1539  138.0055  158.0320 N.am    1  UNL1       -0.3042
     28 H         140.5005  137.4735  157.5227 H       1  UNL1        0.1494
     29 C         143.0623  137.1219  156.5064 C.3     1  UNL1        0.1133
     30 C         142.2245  135.9653  156.0478 C.3     1  UNL1        0.1609
     31 N         144.8043  131.8494  158.1175 N.pl3   1  UNL1       -0.3250
     32 C         143.7833  132.6747  157.3921 C.ar    1  UNL1        0.2529
     33 N         142.5596  132.1536  156.6985 N.ar    1  UNL1       -0.0924
     34 N         141.8267  133.3229  156.1106 N.ar    1  UNL1       -0.0438
     35 N         142.5974  134.5666  156.4407 N.ar    1  UNL1       -0.1492
     36 N         143.8067  134.1660  157.2327 N.ar    1  UNL1       -0.1143
     37 H         144.7012  130.8716  158.1680 H       1  UNL1        0.1452
     38 H         145.5774  132.2856  158.5433 H       1  UNL1        0.1452
@<TRIPOS>UNITY_ATOM_ATTR
20 1
charge -1
@<TRIPOS>BOND
     1    31    32    1
     2    32    33   ar
     3    33    34   ar
     4    34    35   ar
     5    35    30    1
     6    30    29    1
     7    29    25    1
     8    25    26    2
     9    25    27   am
    10    27     1    1
    11     1     2    1
    12     2     3    1
    13     3     4    1
    14     4     6    1
    15     6     7   ar
    16     7     8    1
    17     7     9   ar
    18     9    10   ar
    19    10    11   ar
    20    11    12    2
    21    11    13   ar
    22    13    19    1
    23    19    20   ar
    24    19    21   ar
    25    13    14   ar
    26    14    15   ar
    27    15    22    1
    28    22    23    1
    29    23    24    1
    30    15    16   ar
    31    16    17   ar
    32    17    18    1
    33     4     5    1
    34    35    36   ar
    35    36    32   ar
    36     5     1    1
    37    17     6   ar
    38    16    10   ar
    39    24    22    1
    40    31    37    1
    41    31    38    1
    42    27    28    1
@<TRIPOS>MOLECULE
*****
 38 42 0 0 0
SMALL
GASTEIGER

@<TRIPOS>ATOM
      1 C         143.3870  138.6875  160.4294 C.3     1  UNL1        0.0929
      2 C         144.0176  140.0459  160.5148 C.3     1  UNL1        0.0427
      3 C         143.9261  140.5107  161.9380 C.3     1  UNL1        0.0927
      4 N         143.2390  139.4397  162.7322 N.pl3   1  UNL1       -0.3033
      5 C         142.9058  138.3129  161.7999 C.3     1  UNL1        0.1104
      6 C         142.9379  139.4871  164.2010 C.ar    1  UNL1        0.0878
      7 C         143.9640  139.0242  165.1923 C.ar    1  UNL1        0.1543
      8 F         145.2913  138.5139  164.7149 F       1  UNL1       -0.2028
      9 C         143.6629  139.0717  166.6609 C.ar    1  UNL1        0.0356
     10 C         142.3356  139.5820  167.1383 C.ar    1  UNL1        0.0580
     11 C         142.0345  139.6295  168.6071 C.ar    1  UNL1        0.1996
     12 O         143.0606  139.1666  169.5984 O.2     1  UNL1       -0.2864
     13 C         140.7072  140.1398  169.0844 C.ar    1  UNL1        0.0701
     14 C         139.6810  140.6027  168.0930 C.ar    1  UNL1        0.0801
     15 N         139.9822  140.5553  166.6244 N.ar    1  UNL1       -0.3270
     16 C         141.3094  140.0449  166.1470 C.ar    1  UNL1        0.0750
     17 C         141.6106  139.9975  164.6784 C.ar    1  UNL1        0.0890
     18 CL        140.5844  140.4604  163.6870 Cl      1  UNL1       -0.0794
     19 C         140.4060  140.1872  170.5531 C.2     1  UNL1        0.0774
     20 O         141.2355  141.0457  171.4614 O.co2   1  UNL1       -0.5444
     21 O         139.2754  139.3762  171.1135 O.co2   1  UNL1       -0.5444
     22 C         138.9560  141.0182  165.6331 C.3     1  UNL1        0.0857
     23 C         137.8523  140.7088  164.6656 C.3     1  UNL1        0.0245
     24 C         138.2824  142.1292  164.8836 C.3     1  UNL1        0.0245
     25 C         142.0803  138.0305  158.2821 C.2     1  UNL1        0.2246
     26 O         141.0277  139.0472  158.6116 O.2     1  UNL1       -0.2750
     27 N         143.2599  137.8507  159.1910 N.am    1  UNL1       -0.3042
     28 H         143.9508  137.1834  158.9748 H       1  UNL1        0.1494
     29 C         141.9533  137.1937  157.0437 C.3     1  UNL1        0.1133
     30 C         143.0923  136.3200  156.6088 C.3     1  UNL1        0.1609
     31 N         143.8688  131.2332  157.7926 N.pl3   1  UNL1       -0.3250
     32 C         143.3078  132.4891  157.1944 C.ar    1  UNL1        0.2529
     33 N         142.1587  132.5713  156.2339 N.ar    1  UNL1       -0.0924
     34 N         141.9381  134.0164  155.8975 N.ar    1  UNL1       -0.0438
     35 N         142.9509  134.8273  156.6503 N.ar    1  UNL1       -0.1492
     36 N         143.7974  133.8833  157.4518 N.ar    1  UNL1       -0.1143
     37 H         143.4772  130.3601  157.5611 H       1  UNL1        0.1452
     38 H         144.6285  131.2819  158.4168 H       1  UNL1        0.1452
@<TRIPOS>UNITY_ATOM_ATTR
20 1
charge -1
@<TRIPOS>BOND
     1    31    32    1
     2    32    33   ar
     3    33    34   ar
     4    34    35   ar
     5    35    30    1
     6    30    29    1
     7    29    25    1
     8    25    26    2
     9    25    27   am
    10    27     1    1
    11     1     2    1
    12     2     3    1
    13     3     4    1
    14     4     6    1
    15     6     7   ar
    16     7     8    1
    17     7     9   ar
    18     9    10   ar
    19    10    11   ar
    20    11    12    2
    21    11    13   ar
    22    13    19    1
    23    19    20   ar
    24    19    21   ar
    25    13    14   ar
    26    14    15   ar
    27    15    22    1
    28    22    23    1
    29    23    24    1
    30    15    16   ar
    31    16    17   ar
    32    17    18    1
    33     4     5    1
    34    35    36   ar
    35    36    32   ar
    36     5     1    1
    37    17     6   ar
    38    16    10   ar
    39    24    22    1
    40    31    37    1
    41    31    38    1
    42    27    28    1
@<TRIPOS>MOLECULE
*****
 38 42 0 0 0
SMALL
GASTEIGER

@<TRIPOS>ATOM
      1 C         138.4193  139.8568  159.4056 C.3     1  UNL1        0.0929
      2 C         139.5933  138.9236  159.4363 C.3     1  UNL1        0.0427
      3 C         140.0660  138.8200  160.8561 C.3     1  UNL1        0.0927
      4 N         139.1842  139.6890  161.7029 N.pl3   1  UNL1       -0.3033
      5 C         138.1664  140.3298  160.8064 C.3     1  UNL1        0.1104
      6 C         139.2997  139.8832  163.1858 C.ar    1  UNL1        0.0878
      7 C         138.8134  138.8169  164.1220 C.ar    1  UNL1        0.1543
      8 F         138.2116  137.5564  163.5753 F       1  UNL1       -0.2028
      9 C         138.9290  139.0111  165.6048 C.ar    1  UNL1        0.0356
     10 C         139.5308  140.2717  166.1515 C.ar    1  UNL1        0.0580
     11 C         139.6464  140.4659  167.6344 C.ar    1  UNL1        0.1996
     12 O         139.1601  139.3996  168.5706 O.2     1  UNL1       -0.2864
     13 C         140.2482  141.7264  168.1811 C.ar    1  UNL1        0.0701
     14 C         140.7345  142.7928  167.2448 C.ar    1  UNL1        0.0801
     15 N         140.6189  142.5985  165.7620 N.ar    1  UNL1       -0.3270
     16 C         140.0171  141.3380  165.2153 C.ar    1  UNL1        0.0750
     17 C         139.9015  141.1437  163.7324 C.ar    1  UNL1        0.0890
     18 CL        140.3878  142.2101  162.7962 Cl      1  UNL1       -0.0794
     19 C         140.3637  141.9207  169.6639 C.2     1  UNL1        0.0774
     20 O         141.7164  142.0317  170.3026 O.co2   1  UNL1       -0.5444
     21 O         139.1266  142.0039  170.5081 O.co2   1  UNL1       -0.5444
     22 C         141.1052  143.6648  164.8258 C.3     1  UNL1        0.0857
     23 C         140.8453  144.9025  164.0191 C.3     1  UNL1        0.0245
     24 C         142.2073  144.2741  164.0109 C.3     1  UNL1        0.0245
     25 C         137.7574  141.6359  157.6317 C.2     1  UNL1        0.2246
     26 O         138.6628  142.6323  158.2933 O.2     1  UNL1       -0.2750
     27 N         137.6357  140.2481  158.1879 N.am    1  UNL1       -0.3042
     28 H         137.0415  139.5942  157.7537 H       1  UNL1        0.1494
     29 C         136.9739  142.0273  156.4140 C.3     1  UNL1        0.1133
     30 C         136.1804  140.9951  155.6689 C.3     1  UNL1        0.1609
     31 N         130.9155  140.6532  155.8766 N.pl3   1  UNL1       -0.3250
     32 C         132.3695  140.4958  156.2096 C.ar    1  UNL1        0.2529
     33 N         132.9289  139.7569  157.3891 N.ar    1  UNL1       -0.0924
     34 N         134.4246  139.8541  157.3301 N.ar    1  UNL1       -0.0438
     35 N         134.7895  140.6529  156.1142 N.ar    1  UNL1       -0.1492
     36 N         133.5194  141.0495  155.4217 N.ar    1  UNL1       -0.1143
     37 H         130.2308  140.2508  156.4585 H       1  UNL1        0.1452
     38 H         130.6458  141.1589  155.0762 H       1  UNL1        0.1452
@<TRIPOS>UNITY_ATOM_ATTR
20 1
charge -1
@<TRIPOS>BOND
     1    31    32    1
     2    32    33   ar
     3    33    34   ar
     4    34    35   ar
     5    35    30    1
     6    30    29    1
     7    29    25    1
     8    25    26    2
     9    25    27   am
    10    27     1    1
    11     1     2    1
    12     2     3    1
    13     3     4    1
    14     4     6    1
    15     6     7   ar
    16     7     8    1
    17     7     9   ar
    18     9    10   ar
    19    10    11   ar
    20    11    12    2
    21    11    13   ar
    22    13    19    1
    23    19    20   ar
    24    19    21   ar
    25    13    14   ar
    26    14    15   ar
    27    15    22    1
    28    22    23    1
    29    23    24    1
    30    15    16   ar
    31    16    17   ar
    32    17    18    1
    33     4     5    1
    34    35    36   ar
    35    36    32   ar
    36     5     1    1
    37    17     6   ar
    38    16    10   ar
    39    24    22    1
    40    31    37    1
    41    31    38    1
    42    27    28    1
@<TRIPOS>MOLECULE
*****
 38 42 0 0 0
SMALL
GASTEIGER

@<TRIPOS>ATOM
      1 C         140.1744  140.2932  167.1973 C.3     1  UNL1        0.0929
      2 C         139.0064  139.6133  166.5464 C.3     1  UNL1        0.0427
      3 C         138.7511  140.2881  165.2313 C.3     1  UNL1        0.0927
      4 N         139.7613  141.3850  165.0694 N.pl3   1  UNL1       -0.3033
      5 C         140.6409  141.3882  166.2844 C.3     1  UNL1        0.1104
      6 C         139.8723  142.3155  163.8980 C.ar    1  UNL1        0.0878
      7 C         139.0770  143.5869  163.8722 C.ar    1  UNL1        0.1543
      8 F         138.1705  143.9280  165.0176 F       1  UNL1       -0.2028
      9 C         139.1881  144.5173  162.7009 C.ar    1  UNL1        0.0356
     10 C         140.0945  144.1763  161.5555 C.ar    1  UNL1        0.0580
     11 C         140.2056  145.1067  160.3841 C.ar    1  UNL1        0.1996
     12 O         139.4102  146.3782  160.3582 O.2     1  UNL1       -0.2864
     13 C         141.1121  144.7656  159.2387 C.ar    1  UNL1        0.0701
     14 C         141.9075  143.4941  159.2646 C.ar    1  UNL1        0.0801
     15 N         141.7964  142.5637  160.4359 N.ar    1  UNL1       -0.3270
     16 C         140.8899  142.9048  161.5813 C.ar    1  UNL1        0.0750
     17 C         140.7788  141.9744  162.7526 C.ar    1  UNL1        0.0890
     18 CL        141.5742  140.7029  162.7786 Cl      1  UNL1       -0.0794
     19 C         141.2232  145.6960  158.0674 C.2     1  UNL1        0.0774
     20 O         140.0153  145.9950  157.2298 O.co2   1  UNL1       -0.5444
     21 O         142.5423  146.3275  157.7336 O.co2   1  UNL1       -0.5444
     22 C         142.5918  141.2923  160.4618 C.3     1  UNL1        0.0857
     23 C         142.7203  139.8335  160.1368 C.3     1  UNL1        0.0245
     24 C         143.8408  140.5487  160.8316 C.3     1  UNL1        0.0245
     25 C         142.1276  139.3035  168.5957 C.2     1  UNL1        0.2246
     26 O         142.8874  139.0200  167.3338 O.2     1  UNL1       -0.2750
     27 N         140.7711  139.9401  168.5274 N.am    1  UNL1       -0.3042
     28 H         140.2724  140.1262  169.3556 H       1  UNL1        0.1494
     29 C         142.7243  138.9504  169.9259 C.3     1  UNL1        0.1133
     30 C         142.7902  139.9795  171.0152 C.3     1  UNL1        0.1609
     31 N         138.8269  143.4345  171.5002 N.pl3   1  UNL1       -0.3250
     32 C         140.1459  142.8180  171.1395 C.ar    1  UNL1        0.2529
     33 N         141.2578  143.4902  170.3899 N.ar    1  UNL1       -0.0924
     34 N         142.3837  142.5088  170.2521 N.ar    1  UNL1       -0.0438
     35 N         141.9676  141.2299  170.9165 N.ar    1  UNL1       -0.1492
     36 N         140.5846  141.4211  171.4649 N.ar    1  UNL1       -0.1143
     37 H         138.6306  144.3637  171.2409 H       1  UNL1        0.1452
     38 H         138.1576  142.9099  171.9962 H       1  UNL1        0.1452
@<TRIPOS>UNITY_ATOM_ATTR
20 1
charge -1
@<TRIPOS>BOND
     1    31    32    1
     2    32    33   ar
     3    33    34   ar
     4    34    35   ar
     5    35    30    1
     6    30    29    1
     7    29    25    1
     8    25    26    2
     9    25    27   am
    10    27     1    1
    11     1     2    1
    12     2     3    1
    13     3     4    1
    14     4     6    1
    15     6     7   ar
    16     7     8    1
    17     7     9   ar
    18     9    10   ar
    19    10    11   ar
    20    11    12    2
    21    11    13   ar
    22    13    19    1
    23    19    20   ar
    24    19    21   ar
    25    13    14   ar
    26    14    15   ar
    27    15    22    1
    28    22    23    1
    29    23    24    1
    30    15    16   ar
    31    16    17   ar
    32    17    18    1
    33     4     5    1
    34    35    36   ar
    35    36    32   ar
    36     5     1    1
    37    17     6   ar
    38    16    10   ar
    39    24    22    1
    40    31    37    1
    41    31    38    1
    42    27    28    1
@<TRIPOS>MOLECULE
*****
 38 42 0 0 0
SMALL
GASTEIGER

@<TRIPOS>ATOM
      1 C         140.4876  138.6786  160.5436 C.3     1  UNL1        0.0929
      2 C         139.2123  138.0557  161.0291 C.3     1  UNL1        0.0427
      3 C         139.1004  138.3165  162.5020 C.3     1  UNL1        0.0927
      4 N         140.3066  139.1006  162.9268 N.pl3   1  UNL1       -0.3033
      5 C         141.1639  139.3243  161.7164 C.3     1  UNL1        0.1104
      6 C         140.6033  139.5773  164.3178 C.ar    1  UNL1        0.0878
      7 C         141.3077  138.6737  165.2860 C.ar    1  UNL1        0.1543
      8 F         141.7153  137.2935  164.8632 F       1  UNL1       -0.2028
      9 C         141.6044  139.1504  166.6769 C.ar    1  UNL1        0.0356
     10 C         141.1968  140.5307  167.0996 C.ar    1  UNL1        0.0580
     11 C         141.4936  141.0073  168.4906 C.ar    1  UNL1        0.1996
     12 O         142.1979  140.1038  169.4588 O.2     1  UNL1       -0.2864
     13 C         141.0859  142.3876  168.9133 C.ar    1  UNL1        0.0701
     14 C         140.3815  143.2912  167.9451 C.ar    1  UNL1        0.0801
     15 N         140.0848  142.8145  166.5542 N.ar    1  UNL1       -0.3270
     16 C         140.4924  141.4342  166.1314 C.ar    1  UNL1        0.0750
     17 C         140.1957  140.9575  164.7405 C.ar    1  UNL1        0.0890
     18 CL        139.4913  141.8611  163.7723 Cl      1  UNL1       -0.0794
     19 C         141.3827  142.8643  170.3042 C.2     1  UNL1        0.0774
     20 O         140.4226  142.5703  171.4186 O.co2   1  UNL1       -0.5444
     21 O         142.6395  143.6351  170.5808 O.co2   1  UNL1       -0.5444
     22 C         139.3804  143.7181  165.5860 C.3     1  UNL1        0.0857
     23 C         138.1166  144.1764  164.9207 C.3     1  UNL1        0.0245
     24 C         139.4242  144.8247  164.5744 C.3     1  UNL1        0.0245
     25 C         142.2512  137.9069  158.7988 C.2     1  UNL1        0.2246
     26 O         142.9958  137.1744  159.8754 O.2     1  UNL1       -0.2750
     27 N         140.9971  138.6590  159.1329 N.am    1  UNL1       -0.3042
     28 H         140.5084  139.1398  158.4263 H       1  UNL1        0.1494
     29 C         142.7608  137.8874  157.3881 C.3     1  UNL1        0.1133
     30 C         142.1226  136.9866  156.3726 C.3     1  UNL1        0.1609
     31 N         143.9768  132.2451  157.7725 N.pl3   1  UNL1       -0.3250
     32 C         143.1972  133.3253  157.0831 C.ar    1  UNL1        0.2529
     33 N         142.1768  133.1233  156.0023 N.ar    1  UNL1       -0.0924
     34 N         141.6501  134.4703  155.6046 N.ar    1  UNL1       -0.0438
     35 N         142.3449  135.5047  156.4396 N.ar    1  UNL1       -0.1492
     36 N         143.3011  134.7970  157.3533 N.ar    1  UNL1       -0.1143
     37 H         143.8377  131.3027  157.5241 H       1  UNL1        0.1452
     38 H         144.6276  132.4786  158.4733 H       1  UNL1        0.1452
@<TRIPOS>UNITY_ATOM_ATTR
20 1
charge -1
@<TRIPOS>BOND
     1    31    32    1
     2    32    33   ar
     3    33    34   ar
     4    34    35   ar
     5    35    30    1
     6    30    29    1
     7    29    25    1
     8    25    26    2
     9    25    27   am
    10    27     1    1
    11     1     2    1
    12     2     3    1
    13     3     4    1
    14     4     6    1
    15     6     7   ar
    16     7     8    1
    17     7     9   ar
    18     9    10   ar
    19    10    11   ar
    20    11    12    2
    21    11    13   ar
    22    13    19    1
    23    19    20   ar
    24    19    21   ar
    25    13    14   ar
    26    14    15   ar
    27    15    22    1
    28    22    23    1
    29    23    24    1
    30    15    16   ar
    31    16    17   ar
    32    17    18    1
    33     4     5    1
    34    35    36   ar
    35    36    32   ar
    36     5     1    1
    37    17     6   ar
    38    16    10   ar
    39    24    22    1
    40    31    37    1
    41    31    38    1
    42    27    28    1
@<TRIPOS>MOLECULE
*****
 38 42 0 0 0
SMALL
GASTEIGER

@<TRIPOS>ATOM
      1 C         143.1550  141.2354  160.5842 C.3     1  UNL1        0.0929
      2 C         144.0165  140.0704  160.9725 C.3     1  UNL1        0.0427
      3 C         144.0276  139.9809  162.4698 C.3     1  UNL1        0.0927
      4 N         143.1730  141.0905  163.0069 N.pl3   1  UNL1       -0.3033
      5 C         142.6337  141.8658  161.8415 C.3     1  UNL1        0.1104
      6 C         142.9047  141.3748  164.4551 C.ar    1  UNL1        0.0878
      7 C         143.8754  142.1965  165.2504 C.ar    1  UNL1        0.1543
      8 F         145.1144  142.7339  164.5975 F       1  UNL1       -0.2028
      9 C         143.6071  142.4809  166.6985 C.ar    1  UNL1        0.0356
     10 C         142.3682  141.9435  167.3513 C.ar    1  UNL1        0.0580
     11 C         142.0999  142.2278  168.7996 C.ar    1  UNL1        0.1996
     12 O         143.0706  143.0495  169.5949 O.2     1  UNL1       -0.2864
     13 C         140.8609  141.6905  169.4524 C.ar    1  UNL1        0.0701
     14 C         139.8902  140.8687  168.6570 C.ar    1  UNL1        0.0801
     15 N         140.1585  140.5844  167.2089 N.ar    1  UNL1       -0.3270
     16 C         141.3975  141.1218  166.5560 C.ar    1  UNL1        0.0750
     17 C         141.6658  140.8374  165.1079 C.ar    1  UNL1        0.0890
     18 CL        140.6951  140.0157  164.3125 Cl      1  UNL1       -0.0794
     19 C         140.5927  141.9748  170.9005 C.2     1  UNL1        0.0774
     20 O         139.5504  142.9821  171.2865 O.co2   1  UNL1       -0.5444
     21 O         141.3667  141.2518  171.9628 O.co2   1  UNL1       -0.5444
     22 C         139.1878  139.7627  166.4136 C.3     1  UNL1        0.0857
     23 C         138.6639  138.4236  165.9866 C.3     1  UNL1        0.0245
     24 C         138.0305  139.6785  165.4631 C.3     1  UNL1        0.0245
     25 C         143.9268  142.3912  158.3891 C.2     1  UNL1        0.2246
     26 O         145.2773  142.6376  158.9937 O.2     1  UNL1       -0.2750
     27 N         142.8656  141.6901  159.1844 N.am    1  UNL1       -0.3042
     28 H         141.9792  141.5284  158.7876 H       1  UNL1        0.1494
     29 C         143.6374  142.8459  156.9893 C.3     1  UNL1        0.1133
     30 C         142.5805  143.8808  156.7402 C.3     1  UNL1        0.1609
     31 N         140.6647  145.8463  161.2509 N.pl3   1  UNL1       -0.3250
     32 C         140.7573  145.1734  159.9135 C.ar    1  UNL1        0.2529
     33 N         139.6174  144.5641  159.1523 N.ar    1  UNL1       -0.0924
     34 N         140.1617  144.0058  157.8709 N.ar    1  UNL1       -0.0438
     35 N         141.6379  144.2699  157.8402 N.ar    1  UNL1       -0.1492
     36 N         142.0060  144.9915  159.1026 N.ar    1  UNL1       -0.1143
     37 H         139.7952  145.9169  161.7072 H       1  UNL1        0.1452
     38 H         141.4734  146.2173  161.6723 H       1  UNL1        0.1452
@<TRIPOS>UNITY_ATOM_ATTR
20 1
charge -1
@<TRIPOS>BOND
     1    31    32    1
     2    32    33   ar
     3    33    34   ar
     4    34    35   ar
     5    35    30    1
     6    30    29    1
     7    29    25    1
     8    25    26    2
     9    25    27   am
    10    27     1    1
    11     1     2    1
    12     2     3    1
    13     3     4    1
    14     4     6    1
    15     6     7   ar
    16     7     8    1
    17     7     9   ar
    18     9    10   ar
    19    10    11   ar
    20    11    12    2
    21    11    13   ar
    22    13    19    1
    23    19    20   ar
    24    19    21   ar
    25    13    14   ar
    26    14    15   ar
    27    15    22    1
    28    22    23    1
    29    23    24    1
    30    15    16   ar
    31    16    17   ar
    32    17    18    1
    33     4     5    1
    34    35    36   ar
    35    36    32   ar
    36     5     1    1
    37    17     6   ar
    38    16    10   ar
    39    24    22    1
    40    31    37    1
    41    31    38    1
    42    27    28    1
@<TRIPOS>MOLECULE
*****
 38 42 0 0 0
SMALL
GASTEIGER

@<TRIPOS>ATOM
      1 C         140.2924  139.4238  160.3373 C.3     1  UNL1        0.0929
      2 C         141.0151  138.1583  160.6926 C.3     1  UNL1        0.0427
      3 C         141.1045  138.0796  162.1879 C.3     1  UNL1        0.0927
      4 N         140.4371  139.2965  162.7567 N.pl3   1  UNL1       -0.3033
      5 C         139.9352  140.1273  161.6131 C.3     1  UNL1        0.1104
      6 C         140.2963  139.6251  164.2136 C.ar    1  UNL1        0.0878
      7 C         139.2737  138.9121  165.0478 C.ar    1  UNL1        0.1543
      8 F         138.3919  137.8706  164.4252 F       1  UNL1       -0.2028
      9 C         139.1329  139.2407  166.5045 C.ar    1  UNL1        0.0356
     10 C         140.0147  140.2822  167.1271 C.ar    1  UNL1        0.0580
     11 C         139.8739  140.6108  168.5839 C.ar    1  UNL1        0.1996
     12 O         138.8513  139.8978  169.4181 O.2     1  UNL1       -0.2864
     13 C         140.7557  141.6523  169.2065 C.ar    1  UNL1        0.0701
     14 C         141.7784  142.3653  168.3722 C.ar    1  UNL1        0.0801
     15 N         141.9191  142.0367  166.9155 N.ar    1  UNL1       -0.3270
     16 C         141.0373  140.9952  166.2929 C.ar    1  UNL1        0.0750
     17 C         141.1781  140.6666  164.8362 C.ar    1  UNL1        0.0890
     18 CL        142.2007  141.3796  164.0019 Cl      1  UNL1       -0.0794
     19 C         140.6150  141.9809  170.6633 C.2     1  UNL1        0.0774
     20 O         139.6064  142.9980  171.1087 O.co2   1  UNL1       -0.5444
     21 O         141.4827  141.2923  171.6747 O.co2   1  UNL1       -0.5444
     22 C         142.9417  142.7497  166.0813 C.3     1  UNL1        0.0857
     23 C         143.2804  143.7437  165.0102 C.3     1  UNL1        0.0245
     24 C         144.3742  142.9907  165.7075 C.3     1  UNL1        0.0245
     25 C         138.5560  140.0964  158.5255 C.2     1  UNL1        0.2246
     26 O         137.4413  139.8128  159.4886 O.2     1  UNL1       -0.2750
     27 N         139.9815  139.9019  158.9500 N.am    1  UNL1       -0.3042
     28 H         140.7130  140.0880  158.3180 H       1  UNL1        0.1494
     29 C         138.2451  140.5744  157.1382 C.3     1  UNL1        0.1133
     30 C         137.1752  141.6033  156.9216 C.3     1  UNL1        0.1609
     31 N         132.6014  139.1009  156.0864 N.pl3   1  UNL1       -0.3250
     32 C         133.7539  140.0507  155.9474 C.ar    1  UNL1        0.2529
     33 N         133.8994  141.1129  154.8983 N.ar    1  UNL1       -0.0924
     34 N         135.1988  141.8238  155.1356 N.ar    1  UNL1       -0.0438
     35 N         135.8563  141.2010  156.3312 N.ar    1  UNL1       -0.1492
     36 N         134.9633  140.1051  156.8329 N.ar    1  UNL1       -0.1143
     37 H         131.8494  139.1432  155.4524 H       1  UNL1        0.1452
     38 H         132.5969  138.4351  156.8116 H       1  UNL1        0.1452
@<TRIPOS>UNITY_ATOM_ATTR
20 1
charge -1
@<TRIPOS>BOND
     1    31    32    1
     2    32    33   ar
     3    33    34   ar
     4    34    35   ar
     5    35    30    1
     6    30    29    1
     7    29    25    1
     8    25    26    2
     9    25    27   am
    10    27     1    1
    11     1     2    1
    12     2     3    1
    13     3     4    1
    14     4     6    1
    15     6     7   ar
    16     7     8    1
    17     7     9   ar
    18     9    10   ar
    19    10    11   ar
    20    11    12    2
    21    11    13   ar
    22    13    19    1
    23    19    20   ar
    24    19    21   ar
    25    13    14   ar
    26    14    15   ar
    27    15    22    1
    28    22    23    1
    29    23    24    1
    30    15    16   ar
    31    16    17   ar
    32    17    18    1
    33     4     5    1
    34    35    36   ar
    35    36    32   ar
    36     5     1    1
    37    17     6   ar
    38    16    10   ar
    39    24    22    1
    40    31    37    1
    41    31    38    1
    42    27    28    1
@<TRIPOS>MOLECULE
*****
 38 42 0 0 0
SMALL
GASTEIGER

@<TRIPOS>ATOM
      1 C         141.7724  139.9049  167.4316 C.3     1  UNL1        0.0929
      2 C         140.2746  139.8253  167.4520 C.3     1  UNL1        0.0427
      3 C         139.7491  140.6957  166.3492 C.3     1  UNL1        0.0927
      4 N         140.9220  141.3133  165.6473 N.pl3   1  UNL1       -0.3033
      5 C         142.1725  140.8246  166.3162 C.3     1  UNL1        0.1104
      6 C         140.8561  142.2545  164.4811 C.ar    1  UNL1        0.0878
      7 C         140.2136  143.6006  164.6391 C.ar    1  UNL1        0.1543
      8 F         139.6369  144.0057  165.9632 F       1  UNL1       -0.2028
      9 C         140.1477  144.5417  163.4729 C.ar    1  UNL1        0.0356
     10 C         140.7244  144.1367  162.1488 C.ar    1  UNL1        0.0580
     11 C         140.6585  145.0778  160.9826 C.ar    1  UNL1        0.1996
     12 O         140.0159  146.4240  161.1405 O.2     1  UNL1       -0.2864
     13 C         141.2352  144.6728  159.6584 C.ar    1  UNL1        0.0701
     14 C         141.8778  143.3266  159.5005 C.ar    1  UNL1        0.0801
     15 N         141.9437  142.3855  160.6666 N.ar    1  UNL1       -0.3270
     16 C         141.3670  142.7906  161.9908 C.ar    1  UNL1        0.0750
     17 C         141.4328  141.8495  163.1569 C.ar    1  UNL1        0.0890
     18 CL        142.0755  140.5033  162.9990 Cl      1  UNL1       -0.0794
     19 C         141.1693  145.6139  158.4922 C.2     1  UNL1        0.0774
     20 O         139.8505  145.9124  157.8429 O.co2   1  UNL1       -0.5444
     21 O         142.4223  146.2565  157.9753 O.co2   1  UNL1       -0.5444
     22 C         142.5863  141.0394  160.5086 C.3     1  UNL1        0.0857
     23 C         142.4716  139.5697  160.2313 C.3     1  UNL1        0.0245
     24 C         143.8138  140.1775  160.5123 C.3     1  UNL1        0.0245
     25 C         142.4186  139.1589  169.8349 C.2     1  UNL1        0.2246
     26 O         141.1973  139.8420  170.3753 O.2     1  UNL1       -0.2750
     27 N         142.7061  139.1904  168.3631 N.am    1  UNL1       -0.3042
     28 H         143.5076  138.7420  168.0084 H       1  UNL1        0.1494
     29 C         143.3523  138.4443  170.7664 C.3     1  UNL1        0.1133
     30 C         143.7246  137.0150  170.5045 C.3     1  UNL1        0.1609
     31 N         146.3497  133.6324  173.5943 N.pl3   1  UNL1       -0.3250
     32 C         146.0201  134.8100  172.7256 C.ar    1  UNL1        0.2529
     33 N         146.9583  135.9186  172.3501 N.ar    1  UNL1       -0.0924
     34 N         146.2125  136.8795  171.4723 N.ar    1  UNL1       -0.0438
     35 N         144.8135  136.3648  171.3054 N.ar    1  UNL1       -0.1492
     36 N         144.6947  135.0858  172.0799 N.ar    1  UNL1       -0.1143
     37 H         147.2530  133.5385  173.9742 H       1  UNL1        0.1452
     38 H         145.6626  132.9534  173.7844 H       1  UNL1        0.1452
@<TRIPOS>UNITY_ATOM_ATTR
20 1
charge -1
@<TRIPOS>BOND
     1    31    32    1
     2    32    33   ar
     3    33    34   ar
     4    34    35   ar
     5    35    30    1
     6    30    29    1
     7    29    25    1
     8    25    26    2
     9    25    27   am
    10    27     1    1
    11     1     2    1
    12     2     3    1
    13     3     4    1
    14     4     6    1
    15     6     7   ar
    16     7     8    1
    17     7     9   ar
    18     9    10   ar
    19    10    11   ar
    20    11    12    2
    21    11    13   ar
    22    13    19    1
    23    19    20   ar
    24    19    21   ar
    25    13    14   ar
    26    14    15   ar
    27    15    22    1
    28    22    23    1
    29    23    24    1
    30    15    16   ar
    31    16    17   ar
    32    17    18    1
    33     4     5    1
    34    35    36   ar
    35    36    32   ar
    36     5     1    1
    37    17     6   ar
    38    16    10   ar
    39    24    22    1
    40    31    37    1
    41    31    38    1
    42    27    28    1
@<TRIPOS>MOLECULE
*****
 38 42 0 0 0
SMALL
GASTEIGER

@<TRIPOS>ATOM
      1 C         139.1796  142.8810  159.5480 C.3     1  UNL1        0.0929
      2 C         140.6790  142.8599  159.5075 C.3     1  UNL1        0.0427
      3 C         141.1793  142.7515  160.9174 C.3     1  UNL1        0.0927
      4 N         139.9892  142.7055  161.8293 N.pl3   1  UNL1       -0.3033
      5 C         138.7534  142.7855  160.9829 C.3     1  UNL1        0.1104
      6 C         140.0281  142.5984  163.3250 C.ar    1  UNL1        0.0878
      7 C         139.9763  143.8384  164.1674 C.ar    1  UNL1        0.1543
      8 F         139.8855  145.1856  163.5141 F       1  UNL1       -0.2028
      9 C         140.0152  143.7311  165.6630 C.ar    1  UNL1        0.0356
     10 C         140.1060  142.3839  166.3163 C.ar    1  UNL1        0.0580
     11 C         140.1449  142.2768  167.8120 C.ar    1  UNL1        0.1996
     12 O         140.0930  143.5168  168.6543 O.2     1  UNL1       -0.2864
     13 C         140.2356  140.9295  168.4652 C.ar    1  UNL1        0.0701
     14 C         140.2875  139.6895  167.6228 C.ar    1  UNL1        0.0801
     15 N         140.2486  139.7967  166.1271 N.ar    1  UNL1       -0.3270
     16 C         140.1578  141.1439  165.4739 C.ar    1  UNL1        0.0750
     17 C         140.1189  141.2511  163.9783 C.ar    1  UNL1        0.0890
     18 CL        140.1707  140.0111  163.1358 Cl      1  UNL1       -0.0794
     19 C         140.2745  140.8223  169.9608 C.2     1  UNL1        0.0774
     20 O         141.3429  141.5346  170.7363 O.co2   1  UNL1       -0.5444
     21 O         139.2451  140.0028  170.6811 O.co2   1  UNL1       -0.5444
     22 C         140.3004  138.5567  165.2848 C.3     1  UNL1        0.0857
     23 C         141.0936  137.4791  164.6067 C.3     1  UNL1        0.0245
     24 C         139.5971  137.4865  164.5038 C.3     1  UNL1        0.0245
     25 C         137.7070  141.7350  157.7402 C.2     1  UNL1        0.2246
     26 O         138.0599  140.3908  158.3048 O.2     1  UNL1       -0.2750
     27 N         138.2668  142.9800  158.3618 N.am    1  UNL1       -0.3042
     28 H         138.0352  143.8622  157.9912 H       1  UNL1        0.1494
     29 C         136.7942  141.8340  156.5540 C.3     1  UNL1        0.1133
     30 C         136.0703  140.6163  156.0609 C.3     1  UNL1        0.1609
     31 N         130.8144  140.8912  155.6370 N.pl3   1  UNL1       -0.3250
     32 C         132.1901  140.5762  156.1452 C.ar    1  UNL1        0.2529
     33 N         132.5151  139.8114  157.3939 N.ar    1  UNL1       -0.0924
     34 N         134.0082  139.7333  157.5144 N.ar    1  UNL1       -0.0438
     35 N         134.6060  140.4499  156.3400 N.ar    1  UNL1       -0.1492
     36 N         133.4823  140.9708  155.4939 N.ar    1  UNL1       -0.1143
     37 H         130.0232  140.5872  156.1378 H       1  UNL1        0.1452
     38 H         130.7028  141.4018  154.8028 H       1  UNL1        0.1452
@<TRIPOS>UNITY_ATOM_ATTR
20 1
charge -1
@<TRIPOS>BOND
     1    31    32    1
     2    32    33   ar
     3    33    34   ar
     4    34    35   ar
     5    35    30    1
     6    30    29    1
     7    29    25    1
     8    25    26    2
     9    25    27   am
    10    27     1    1
    11     1     2    1
    12     2     3    1
    13     3     4    1
    14     4     6    1
    15     6     7   ar
    16     7     8    1
    17     7     9   ar
    18     9    10   ar
    19    10    11   ar
    20    11    12    2
    21    11    13   ar
    22    13    19    1
    23    19    20   ar
    24    19    21   ar
    25    13    14   ar
    26    14    15   ar
    27    15    22    1
    28    22    23    1
    29    23    24    1
    30    15    16   ar
    31    16    17   ar
    32    17    18    1
    33     4     5    1
    34    35    36   ar
    35    36    32   ar
    36     5     1    1
    37    17     6   ar
    38    16    10   ar
    39    24    22    1
    40    31    37    1
    41    31    38    1
    42    27    28    1
