@<TRIPOS>MOLECULE
*****
 34 37 0 0 0
SMALL
GASTEIGER

@<TRIPOS>ATOM
      1 C         138.6133  140.3475  163.3091 C.ar    1  UNL1        0.0685
      2 C         138.5191  139.1399  162.4243 C.ar    1  UNL1        0.0885
      3 C         138.8534  137.7830  162.9692 C.ar    1  UNL1        0.1263
      4 N         139.2819  137.6336  164.3990 N.ar    1  UNL1       -0.1633
      5 N         139.3760  138.8412  165.2838 N.ar    1  UNL1       -0.2270
      6 C         139.7663  139.0029  166.7230 C.ar    1  UNL1        0.1005
      7 C         139.6732  140.4598  167.0676 C.ar    1  UNL1        0.0223
      8 C         139.2254  141.1985  165.8413 C.ar    1  UNL1        0.0220
      9 C         139.0417  140.1981  164.7388 C.ar    1  UNL1        0.0961
     10 C         139.9749  141.0707  168.4039 C.ar    1  UNL1        0.0230
     11 C         140.0257  140.2070  169.6293 C.ar    1  UNL1        0.0990
     12 N         140.3274  140.8181  170.9655 N.ar    1  UNL1       -0.2400
     13 C         140.5784  142.2928  171.0765 C.ar    1  UNL1        0.1284
     14 C         140.5277  143.1565  169.8512 C.ar    1  UNL1        0.1592
     15 F         140.7786  144.6311  169.9620 F       1  UNL1       -0.2025
     16 C         140.2259  142.5454  168.5149 C.ar    1  UNL1        0.0328
     17 C         138.0906  139.2893  160.9946 C.2     1  UNL1        0.2456
     18 N         136.6421  139.4946  160.6633 N.am    1  UNL1       -0.3252
     19 O         139.1105  139.2335  159.8962 O.2     1  UNL1       -0.2703
     20 H         135.9727  139.5312  161.3843 H       1  UNL1        0.1453
     21 H         136.3609  139.5927  159.7250 H       1  UNL1        0.1453
     22 N         138.2789  141.7044  162.7642 N.pl3   1  UNL1       -0.3327
     23 H         137.3466  142.0205  162.7683 H       1  UNL1        0.1468
     24 C         138.0824  143.9291  162.9632 C.3     1  UNL1        0.0029
     25 C         139.3977  144.0787  162.2578 C.3     1  UNL1        0.0282
     26 C         139.1551  145.5464  162.4502 C.3     1  UNL1        0.0029
     27 C         139.3652  142.5798  162.2129 C.3     1  UNL1        0.0702
     28 C         140.6098  142.1098  161.5199 C.3     1  UNL1        0.0208
     29 C         141.4113  143.3182  161.1366 C.3     1  UNL1        0.0160
     30 C         140.6622  144.5351  161.5927 C.3     1  UNL1        0.0404
     31 C         140.1553  145.9074  161.9241 C.3     1  UNL1        0.0156
     32 N         141.8208  145.2784  160.9967 N.3     1  UNL1       -0.3231
     33 H         142.4883  144.6124  160.6078 H       1  UNL1        0.1188
     34 H         142.2771  145.8337  161.7206 H       1  UNL1        0.1188
@<TRIPOS>BOND
     1    24    25    1
     2    25    26    1
     3    25    27    1
     4    27    22    1
     5    22     1    1
     6     1     2   ar
     7     2    17    1
     8    17    18   am
     9    17    19    2
    10     2     3   ar
    11     3     4   ar
    12     4     5   ar
    13     5     6   ar
    14     6     7   ar
    15     7    10    1
    16    10    11   ar
    17    11    12   ar
    18    12    13   ar
    19    13    14   ar
    20    14    15    1
    21    14    16   ar
    22     7     8   ar
    23     8     9   ar
    24    27    28    1
    25    28    29    1
    26    29    30    1
    27    30    31    1
    28    30    32    1
    29    30    25    1
    30     9     1   ar
    31     9     5   ar
    32    16    10   ar
    33    22    23    1
    34    18    20    1
    35    18    21    1
    36    32    33    1
    37    32    34    1
@<TRIPOS>MOLECULE
*****
 34 37 0 0 0
SMALL
GASTEIGER

@<TRIPOS>ATOM
      1 C         140.5413  140.3781  167.3680 C.ar    1  UNL1        0.0685
      2 C         140.5009  140.6569  168.8413 C.ar    1  UNL1        0.0885
      3 C         141.4676  141.6306  169.4471 C.ar    1  UNL1        0.1263
      4 N         142.4749  142.3257  168.5796 N.ar    1  UNL1       -0.1633
      5 N         142.5153  142.0469  167.1063 N.ar    1  UNL1       -0.2270
      6 C         143.3893  142.5764  166.0083 C.ar    1  UNL1        0.1005
      7 C         142.9626  141.9299  164.7238 C.ar    1  UNL1        0.0223
      8 C         141.8250  141.0008  165.0280 C.ar    1  UNL1        0.0220
      9 C         141.5485  141.0731  166.5005 C.ar    1  UNL1        0.0961
     10 C         143.5675  142.1702  163.3723 C.ar    1  UNL1        0.0230
     11 C         144.9488  141.6702  163.0692 C.ar    1  UNL1        0.0990
     12 N         145.5536  141.9105  161.7176 N.ar    1  UNL1       -0.2400
     13 C         144.7771  142.6508  160.6693 C.ar    1  UNL1        0.1284
     14 C         143.3957  143.1508  160.9725 C.ar    1  UNL1        0.1592
     15 F         142.6192  143.8911  159.9243 F       1  UNL1       -0.2025
     16 C         142.7910  142.9105  162.3240 C.ar    1  UNL1        0.0328
     17 C         139.4936  139.9618  169.7087 C.2     1  UNL1        0.2456
     18 N         139.8330  139.6263  171.1308 N.am    1  UNL1       -0.3252
     19 O         138.1472  139.6023  169.1541 O.2     1  UNL1       -0.2703
     20 H         140.7168  139.8623  171.4948 H       1  UNL1        0.1453
     21 H         139.1720  139.1702  171.7001 H       1  UNL1        0.1453
     22 N         139.5745  139.4043  166.7621 N.pl3   1  UNL1       -0.3327
     23 H         139.3694  138.5608  167.2265 H       1  UNL1        0.1468
     24 C         139.6130  137.8573  165.1395 C.3     1  UNL1        0.0029
     25 C         138.8512  138.8038  164.2598 C.3     1  UNL1        0.0282
     26 C         138.9415  137.6940  163.2548 C.3     1  UNL1        0.0029
     27 C         138.9201  139.7158  165.4487 C.3     1  UNL1        0.0702
     28 C         138.2198  140.9939  165.0938 C.3     1  UNL1        0.0208
     29 C         137.7181  140.8718  163.6855 C.3     1  UNL1        0.0160
     30 C         138.1083  139.5183  163.1701 C.3     1  UNL1        0.0404
     31 C         138.3539  138.2591  162.3929 C.3     1  UNL1        0.0156
     32 N         137.4167  139.9695  161.9179 N.3     1  UNL1       -0.3231
     33 H         137.0550  140.9139  162.0507 H       1  UNL1        0.1188
     34 H         136.6450  139.3362  161.7085 H       1  UNL1        0.1188
@<TRIPOS>BOND
     1    24    25    1
     2    25    26    1
     3    25    27    1
     4    27    22    1
     5    22     1    1
     6     1     2   ar
     7     2    17    1
     8    17    18   am
     9    17    19    2
    10     2     3   ar
    11     3     4   ar
    12     4     5   ar
    13     5     6   ar
    14     6     7   ar
    15     7    10    1
    16    10    11   ar
    17    11    12   ar
    18    12    13   ar
    19    13    14   ar
    20    14    15    1
    21    14    16   ar
    22     7     8   ar
    23     8     9   ar
    24    27    28    1
    25    28    29    1
    26    29    30    1
    27    30    31    1
    28    30    32    1
    29    30    25    1
    30     9     1   ar
    31     9     5   ar
    32    16    10   ar
    33    22    23    1
    34    18    20    1
    35    18    21    1
    36    32    33    1
    37    32    34    1
@<TRIPOS>MOLECULE
*****
 34 37 0 0 0
SMALL
GASTEIGER

@<TRIPOS>ATOM
      1 C         140.7304  139.6446  163.4589 C.ar    1  UNL1        0.0685
      2 C         140.1145  138.5792  162.6014 C.ar    1  UNL1        0.0885
      3 C         139.0991  137.6414  163.1840 C.ar    1  UNL1        0.1263
      4 N         138.6996  137.7691  164.6242 N.ar    1  UNL1       -0.1633
      5 N         139.3155  138.8345  165.4817 N.ar    1  UNL1       -0.2270
      6 C         139.1206  139.1999  166.9234 C.ar    1  UNL1        0.1005
      7 C         140.0156  140.3634  167.2318 C.ar    1  UNL1        0.0223
      8 C         140.7636  140.7172  165.9807 C.ar    1  UNL1        0.0220
      9 C         140.3310  139.7723  164.8990 C.ar    1  UNL1        0.0961
     10 C         140.1406  141.0523  168.5584 C.ar    1  UNL1        0.0230
     11 C         140.0526  140.2575  169.8274 C.ar    1  UNL1        0.0990
     12 N         140.1776  140.9465  171.1540 N.ar    1  UNL1       -0.2400
     13 C         140.3906  142.4302  171.2115 C.ar    1  UNL1        0.1284
     14 C         140.4786  143.2250  169.9425 C.ar    1  UNL1        0.1592
     15 F         140.6916  144.7086  169.9999 F       1  UNL1       -0.2025
     16 C         140.3536  142.5360  168.6159 C.ar    1  UNL1        0.0328
     17 C         140.5140  138.4515  161.1611 C.2     1  UNL1        0.2456
     18 N         139.4663  138.4697  160.0878 N.am    1  UNL1       -0.3252
     19 O         141.9610  138.3058  160.7943 O.2     1  UNL1       -0.2703
     20 H         138.5165  138.5653  160.3286 H       1  UNL1        0.1453
     21 H         139.7284  138.3859  159.1426 H       1  UNL1        0.1453
     22 N         141.7459  140.5824  162.8762 N.pl3   1  UNL1       -0.3327
     23 H         142.5679  140.2261  162.4682 H       1  UNL1        0.1468
     24 C         143.3973  141.9252  163.5815 C.3     1  UNL1        0.0029
     25 C         142.4958  143.1028  163.3566 C.3     1  UNL1        0.0282
     26 C         143.6713  143.8962  163.8450 C.3     1  UNL1        0.0029
     27 C         141.5087  142.0631  162.9152 C.3     1  UNL1        0.0702
     28 C         140.2429  142.7640  162.5197 C.3     1  UNL1        0.0208
     29 C         140.4477  144.2368  162.7167 C.3     1  UNL1        0.0160
     30 C         141.8400  144.4461  163.2339 C.3     1  UNL1        0.0404
     31 C         143.1527  144.9588  163.7480 C.3     1  UNL1        0.0156
     32 N         141.4587  145.8968  163.2187 N.3     1  UNL1       -0.3231
     33 H         140.5004  145.9929  162.8828 H       1  UNL1        0.1188
     34 H         142.0886  146.4075  162.6000 H       1  UNL1        0.1188
@<TRIPOS>BOND
     1    24    25    1
     2    25    26    1
     3    25    27    1
     4    27    22    1
     5    22     1    1
     6     1     2   ar
     7     2    17    1
     8    17    18   am
     9    17    19    2
    10     2     3   ar
    11     3     4   ar
    12     4     5   ar
    13     5     6   ar
    14     6     7   ar
    15     7    10    1
    16    10    11   ar
    17    11    12   ar
    18    12    13   ar
    19    13    14   ar
    20    14    15    1
    21    14    16   ar
    22     7     8   ar
    23     8     9   ar
    24    27    28    1
    25    28    29    1
    26    29    30    1
    27    30    31    1
    28    30    32    1
    29    30    25    1
    30     9     1   ar
    31     9     5   ar
    32    16    10   ar
    33    22    23    1
    34    18    20    1
    35    18    21    1
    36    32    33    1
    37    32    34    1
@<TRIPOS>MOLECULE
*****
 34 37 0 0 0
SMALL
GASTEIGER

@<TRIPOS>ATOM
      1 C         141.1893  140.5632  168.3822 C.ar    1  UNL1        0.0685
      2 C         140.8333  140.4672  169.8361 C.ar    1  UNL1        0.0885
      3 C         139.4730  139.9852  170.2449 C.ar    1  UNL1        0.1263
      4 N         138.4686  139.5992  169.1998 N.ar    1  UNL1       -0.1633
      5 N         138.8247  139.6953  167.7458 N.ar    1  UNL1       -0.2270
      6 C         138.0483  139.3871  166.4999 C.ar    1  UNL1        0.1005
      7 C         138.9288  139.6787  165.3211 C.ar    1  UNL1        0.0223
      8 C         140.2494  140.1670  165.8384 C.ar    1  UNL1        0.0220
      9 C         140.1850  140.1773  167.3370 C.ar    1  UNL1        0.0961
     10 C         138.5546  139.5113  163.8782 C.ar    1  UNL1        0.0230
     11 C         138.4630  138.1381  163.2816 C.ar    1  UNL1        0.0990
     12 N         138.0887  137.9709  161.8386 N.ar    1  UNL1       -0.2400
     13 C         137.8060  139.1766  160.9924 C.ar    1  UNL1        0.1284
     14 C         137.8975  140.5498  161.5891 C.ar    1  UNL1        0.1592
     15 F         137.6148  141.7556  160.7429 F       1  UNL1       -0.2025
     16 C         138.2718  140.7171  163.0320 C.ar    1  UNL1        0.0328
     17 C         141.8377  140.8532  170.8813 C.2     1  UNL1        0.2456
     18 N         143.0087  139.9589  171.1625 N.am    1  UNL1       -0.3252
     19 O         141.6711  142.1332  171.6451 O.2     1  UNL1       -0.2703
     20 H         143.1180  139.1187  170.6612 H       1  UNL1        0.1453
     21 H         143.6679  140.2122  171.8485 H       1  UNL1        0.1453
     22 N         142.5497  141.0452  167.9734 N.pl3   1  UNL1       -0.3327
     23 H         143.0095  141.7325  168.5077 H       1  UNL1        0.1468
     24 C         143.2579  142.4519  166.3774 C.3     1  UNL1        0.0029
     25 C         143.7406  141.2694  165.5908 C.3     1  UNL1        0.0282
     26 C         144.1708  142.3060  164.5956 C.3     1  UNL1        0.0029
     27 C         143.2095  140.4801  166.7504 C.3     1  UNL1        0.0702
     28 C         143.4539  139.0265  166.4726 C.3     1  UNL1        0.0208
     29 C         144.1360  138.9174  165.1412 C.3     1  UNL1        0.0160
     30 C         144.3132  140.3037  164.5962 C.3     1  UNL1        0.0404
     31 C         144.6238  141.5421  163.8089 C.3     1  UNL1        0.0156
     32 N         144.9508  139.5968  163.4370 N.3     1  UNL1       -0.3231
     33 H         144.9381  138.5906  163.6037 H       1  UNL1        0.1188
     34 H         145.9154  139.9124  163.3351 H       1  UNL1        0.1188
@<TRIPOS>BOND
     1    24    25    1
     2    25    26    1
     3    25    27    1
     4    27    22    1
     5    22     1    1
     6     1     2   ar
     7     2    17    1
     8    17    18   am
     9    17    19    2
    10     2     3   ar
    11     3     4   ar
    12     4     5   ar
    13     5     6   ar
    14     6     7   ar
    15     7    10    1
    16    10    11   ar
    17    11    12   ar
    18    12    13   ar
    19    13    14   ar
    20    14    15    1
    21    14    16   ar
    22     7     8   ar
    23     8     9   ar
    24    27    28    1
    25    28    29    1
    26    29    30    1
    27    30    31    1
    28    30    32    1
    29    30    25    1
    30     9     1   ar
    31     9     5   ar
    32    16    10   ar
    33    22    23    1
    34    18    20    1
    35    18    21    1
    36    32    33    1
    37    32    34    1
@<TRIPOS>MOLECULE
*****
 34 37 0 0 0
SMALL
GASTEIGER

@<TRIPOS>ATOM
      1 C         140.2340  140.4318  166.1009 C.ar    1  UNL1        0.0685
      2 C         139.4785  140.0344  167.3343 C.ar    1  UNL1        0.0885
      3 C         138.4106  138.9843  167.2539 C.ar    1  UNL1        0.1263
      4 N         138.0980  138.3314  165.9400 N.ar    1  UNL1       -0.1633
      5 N         138.8536  138.7288  164.7066 N.ar    1  UNL1       -0.2270
      6 C         138.7668  138.2640  163.2831 C.ar    1  UNL1        0.1005
      7 C         139.7811  139.0269  162.4838 C.ar    1  UNL1        0.0223
      8 C         140.4948  139.9633  163.4132 C.ar    1  UNL1        0.0220
      9 C         139.9216  139.7790  164.7871 C.ar    1  UNL1        0.0961
     10 C         140.0369  138.8795  161.0131 C.ar    1  UNL1        0.0230
     11 C         138.9283  139.1184  160.0313 C.ar    1  UNL1        0.0990
     12 N         139.1842  138.9709  158.5607 N.ar    1  UNL1       -0.2400
     13 C         140.5486  138.5845  158.0718 C.ar    1  UNL1        0.1284
     14 C         141.6572  138.3455  159.0535 C.ar    1  UNL1        0.1592
     15 F         143.0217  137.9591  158.5647 F       1  UNL1       -0.2025
     16 C         141.4013  138.4930  160.5242 C.ar    1  UNL1        0.0328
     17 C         139.7911  140.6873  168.6481 C.2     1  UNL1        0.2456
     18 N         139.7549  139.8820  169.9131 N.am    1  UNL1       -0.3252
     19 O         140.1398  142.1453  168.6970 O.2     1  UNL1       -0.2703
     20 H         139.5260  138.9250  169.8810 H       1  UNL1        0.1453
     21 H         139.9600  140.3104  170.7754 H       1  UNL1        0.1453
     22 N         141.3020  141.4820  166.1814 N.pl3   1  UNL1       -0.3327
     23 H         142.0867  141.3429  166.7595 H       1  UNL1        0.1468
     24 C         143.1531  142.4107  165.3219 C.3     1  UNL1        0.0029
     25 C         142.3005  143.4970  164.7363 C.3     1  UNL1        0.0282
     26 C         143.6047  144.0226  164.2142 C.3     1  UNL1        0.0029
     27 C         141.1746  142.7442  165.3809 C.3     1  UNL1        0.0702
     28 C         139.8987  143.4752  165.0845 C.3     1  UNL1        0.0208
     29 C         140.2362  144.6797  164.2568 C.3     1  UNL1        0.0160
     30 C         141.7206  144.6932  164.0416 C.3     1  UNL1        0.0404
     31 C         143.1460  144.9688  163.6647 C.3     1  UNL1        0.0156
     32 N         141.4386  145.9470  163.2681 N.3     1  UNL1       -0.3231
     33 H         140.4368  146.1381  163.2836 H       1  UNL1        0.1188
     34 H         141.7471  145.8279  162.3032 H       1  UNL1        0.1188
@<TRIPOS>BOND
     1    24    25    1
     2    25    26    1
     3    25    27    1
     4    27    22    1
     5    22     1    1
     6     1     2   ar
     7     2    17    1
     8    17    18   am
     9    17    19    2
    10     2     3   ar
    11     3     4   ar
    12     4     5   ar
    13     5     6   ar
    14     6     7   ar
    15     7    10    1
    16    10    11   ar
    17    11    12   ar
    18    12    13   ar
    19    13    14   ar
    20    14    15    1
    21    14    16   ar
    22     7     8   ar
    23     8     9   ar
    24    27    28    1
    25    28    29    1
    26    29    30    1
    27    30    31    1
    28    30    32    1
    29    30    25    1
    30     9     1   ar
    31     9     5   ar
    32    16    10   ar
    33    22    23    1
    34    18    20    1
    35    18    21    1
    36    32    33    1
    37    32    34    1
@<TRIPOS>MOLECULE
*****
 34 37 0 0 0
SMALL
GASTEIGER

@<TRIPOS>ATOM
      1 C         141.7357  140.6523  167.1957 C.ar    1  UNL1        0.0685
      2 C         141.3587  140.6862  168.6471 C.ar    1  UNL1        0.0885
      3 C         140.5395  141.8226  169.1829 C.ar    1  UNL1        0.1263
      4 N         140.0971  142.9254  168.2672 N.ar    1  UNL1       -0.1633
      5 N         140.4741  142.8915  166.8157 N.ar    1  UNL1       -0.2270
      6 C         140.1850  143.8296  165.6815 C.ar    1  UNL1        0.1005
      7 C         140.8257  143.2728  164.4448 C.ar    1  UNL1        0.0223
      8 C         141.5107  141.9906  164.8146 C.ar    1  UNL1        0.0220
      9 C         141.2934  141.7549  166.2800 C.ar    1  UNL1        0.0961
     10 C         140.7880  143.8899  163.0781 C.ar    1  UNL1        0.0230
     11 C         141.5197  143.2400  161.9414 C.ar    1  UNL1        0.0990
     12 N         141.4820  143.8572  160.5747 N.ar    1  UNL1       -0.2400
     13 C         140.7125  145.1241  160.3447 C.ar    1  UNL1        0.1284
     14 C         139.9808  145.7739  161.4815 C.ar    1  UNL1        0.1592
     15 F         139.2113  147.0408  161.2517 F       1  UNL1       -0.2025
     16 C         140.0185  145.1568  162.8482 C.ar    1  UNL1        0.0328
     17 C         141.8010  139.5834  169.5628 C.2     1  UNL1        0.2456
     18 N         140.9291  139.1658  170.7096 N.am    1  UNL1       -0.3252
     19 O         143.1152  138.8984  169.3316 O.2     1  UNL1       -0.2703
     20 H         140.0665  139.6154  170.8613 H       1  UNL1        0.1453
     21 H         141.2193  138.4421  171.3106 H       1  UNL1        0.1453
     22 N         142.5550  139.5157  166.6599 N.pl3   1  UNL1       -0.3327
     23 H         143.3552  139.2132  167.1472 H       1  UNL1        0.1468
     24 C         144.0059  139.4867  164.9506 C.3     1  UNL1        0.0029
     25 C         142.9951  138.7264  164.1442 C.3     1  UNL1        0.0282
     26 C         144.0465  138.7718  163.0754 C.3     1  UNL1        0.0029
     27 C         142.1551  138.8401  165.3817 C.3     1  UNL1        0.0702
     28 C         140.8449  138.1595  165.1166 C.3     1  UNL1        0.0208
     29 C         140.8752  137.6253  163.7154 C.3     1  UNL1        0.0160
     30 C         142.2041  137.9757  163.1144 C.3     1  UNL1        0.0404
     31 C         143.4209  138.1779  162.2608 C.3     1  UNL1        0.0156
     32 N         141.6675  137.2671  161.9061 N.3     1  UNL1       -0.3231
     33 H         140.7253  136.9284  162.1010 H       1  UNL1        0.1188
     34 H         142.2722  136.4779  161.6782 H       1  UNL1        0.1188
@<TRIPOS>BOND
     1    24    25    1
     2    25    26    1
     3    25    27    1
     4    27    22    1
     5    22     1    1
     6     1     2   ar
     7     2    17    1
     8    17    18   am
     9    17    19    2
    10     2     3   ar
    11     3     4   ar
    12     4     5   ar
    13     5     6   ar
    14     6     7   ar
    15     7    10    1
    16    10    11   ar
    17    11    12   ar
    18    12    13   ar
    19    13    14   ar
    20    14    15    1
    21    14    16   ar
    22     7     8   ar
    23     8     9   ar
    24    27    28    1
    25    28    29    1
    26    29    30    1
    27    30    31    1
    28    30    32    1
    29    30    25    1
    30     9     1   ar
    31     9     5   ar
    32    16    10   ar
    33    22    23    1
    34    18    20    1
    35    18    21    1
    36    32    33    1
    37    32    34    1
@<TRIPOS>MOLECULE
*****
 34 37 0 0 0
SMALL
GASTEIGER

@<TRIPOS>ATOM
      1 C         139.2975  141.3326  163.4830 C.ar    1  UNL1        0.0685
      2 C         138.6748  140.4674  162.4277 C.ar    1  UNL1        0.0885
      3 C         138.2254  139.0772  162.7666 C.ar    1  UNL1        0.1263
      4 N         138.3985  138.5519  164.1610 N.ar    1  UNL1       -0.1633
      5 N         139.0212  139.4170  165.2163 N.ar    1  UNL1       -0.2270
      6 C         139.3192  139.1740  166.6662 C.ar    1  UNL1        0.1005
      7 C         139.9529  140.4142  167.2233 C.ar    1  UNL1        0.0223
      8 C         140.0465  141.4237  166.1177 C.ar    1  UNL1        0.0220
      9 C         139.4706  140.8074  164.8774 C.ar    1  UNL1        0.0961
     10 C         140.4124  140.6104  168.6376 C.ar    1  UNL1        0.0230
     11 C         139.6007  141.4483  169.5805 C.ar    1  UNL1        0.0990
     12 N         140.0602  141.6445  170.9948 N.ar    1  UNL1       -0.2400
     13 C         141.3314  141.0029  171.4663 C.ar    1  UNL1        0.1284
     14 C         142.1432  140.1650  170.5235 C.ar    1  UNL1        0.1592
     15 F         143.4144  139.5234  170.9949 F       1  UNL1       -0.2025
     16 C         141.6836  139.9688  169.1091 C.ar    1  UNL1        0.0328
     17 C         138.5017  140.9927  161.0333 C.2     1  UNL1        0.2456
     18 N         138.7470  140.0942  159.8576 N.am    1  UNL1       -0.3252
     19 O         138.0833  142.4164  160.8147 O.2     1  UNL1       -0.2703
     20 H         139.0216  139.1597  160.0010 H       1  UNL1        0.1453
     21 H         138.6333  140.4389  158.9424 H       1  UNL1        0.1453
     22 N         139.7469  142.7230  163.1441 N.pl3   1  UNL1       -0.3327
     23 H         139.1081  143.4709  163.1864 H       1  UNL1        0.1468
     24 C         140.8556  144.4278  164.0885 C.3     1  UNL1        0.0029
     25 C         142.0566  144.0630  163.2671 C.3     1  UNL1        0.0282
     26 C         142.6923  145.2284  163.9654 C.3     1  UNL1        0.0029
     27 C         141.1698  142.9738  162.7406 C.3     1  UNL1        0.0702
     28 C         141.9556  142.1794  161.7399 C.3     1  UNL1        0.0208
     29 C         143.3280  142.7777  161.6479 C.3     1  UNL1        0.0160
     30 C         143.3904  143.9418  162.5918 C.3     1  UNL1        0.0404
     31 C         143.7473  145.1326  163.4312 C.3     1  UNL1        0.0156
     32 N         144.7989  144.0696  162.0919 N.3     1  UNL1       -0.3231
     33 H         144.9830  143.3395  161.4038 H       1  UNL1        0.1188
     34 H         145.4472  143.9716  162.8733 H       1  UNL1        0.1188
@<TRIPOS>BOND
     1    24    25    1
     2    25    26    1
     3    25    27    1
     4    27    22    1
     5    22     1    1
     6     1     2   ar
     7     2    17    1
     8    17    18   am
     9    17    19    2
    10     2     3   ar
    11     3     4   ar
    12     4     5   ar
    13     5     6   ar
    14     6     7   ar
    15     7    10    1
    16    10    11   ar
    17    11    12   ar
    18    12    13   ar
    19    13    14   ar
    20    14    15    1
    21    14    16   ar
    22     7     8   ar
    23     8     9   ar
    24    27    28    1
    25    28    29    1
    26    29    30    1
    27    30    31    1
    28    30    32    1
    29    30    25    1
    30     9     1   ar
    31     9     5   ar
    32    16    10   ar
    33    22    23    1
    34    18    20    1
    35    18    21    1
    36    32    33    1
    37    32    34    1
@<TRIPOS>MOLECULE
*****
 34 37 0 0 0
SMALL
GASTEIGER

@<TRIPOS>ATOM
      1 C         140.7412  140.2838  166.7003 C.ar    1  UNL1        0.0685
      2 C         141.2521  140.0837  168.0963 C.ar    1  UNL1        0.0885
      3 C         142.5614  139.3880  168.3232 C.ar    1  UNL1        0.1263
      4 N         143.3599  138.8923  167.1541 N.ar    1  UNL1       -0.1633
      5 N         142.8490  139.0923  165.7581 N.ar    1  UNL1       -0.2270
      6 C         143.4115  138.7150  164.4197 C.ar    1  UNL1        0.1005
      7 C         142.4497  139.1775  163.3656 C.ar    1  UNL1        0.0223
      8 C         141.2928  139.8407  164.0525 C.ar    1  UNL1        0.0220
      9 C         141.5396  139.7881  165.5312 C.ar    1  UNL1        0.0961
     10 C         142.6157  139.0068  161.8846 C.ar    1  UNL1        0.0230
     11 C         143.9615  139.2057  161.2529 C.ar    1  UNL1        0.0990
     12 N         144.1274  139.0350  159.7719 N.ar    1  UNL1       -0.2400
     13 C         142.9475  138.6655  158.9226 C.ar    1  UNL1        0.1284
     14 C         141.6016  138.4666  159.5544 C.ar    1  UNL1        0.1592
     15 F         140.4217  138.0971  158.7052 F       1  UNL1       -0.2025
     16 C         141.4358  138.6373  161.0354 C.ar    1  UNL1        0.0328
     17 C         140.4536  140.5794  169.2654 C.2     1  UNL1        0.2456
     18 N         140.3541  142.0516  169.5354 N.am    1  UNL1       -0.3252
     19 O         139.7548  139.6031  170.1644 O.2     1  UNL1       -0.2703
     20 H         140.8128  142.6924  168.9453 H       1  UNL1        0.1453
     21 H         139.8300  142.3770  170.3027 H       1  UNL1        0.1453
     22 N         139.4318  140.9795  166.4733 N.pl3   1  UNL1       -0.3327
     23 H         138.6129  140.6390  166.9007 H       1  UNL1        0.1468
     24 C         137.9990  140.9971  164.7487 C.3     1  UNL1        0.0029
     25 C         138.4759  142.3771  164.4049 C.3     1  UNL1        0.0282
     26 C         137.4819  142.2715  163.2866 C.3     1  UNL1        0.0029
     27 C         139.3701  142.1941  165.5952 C.3     1  UNL1        0.0702
     28 C         140.1919  143.4389  165.7533 C.3     1  UNL1        0.0208
     29 C         139.8056  144.3912  164.6607 C.3     1  UNL1        0.0160
     30 C         138.7450  143.7349  163.8274 C.3     1  UNL1        0.0404
     31 C         137.6947  143.3455  162.8297 C.3     1  UNL1        0.0156
     32 N         138.7945  145.0115  163.0412 N.3     1  UNL1       -0.3231
     33 H         139.4861  145.6379  163.4532 H       1  UNL1        0.1188
     34 H         137.8776  145.4580  163.0597 H       1  UNL1        0.1188
@<TRIPOS>BOND
     1    24    25    1
     2    25    26    1
     3    25    27    1
     4    27    22    1
     5    22     1    1
     6     1     2   ar
     7     2    17    1
     8    17    18   am
     9    17    19    2
    10     2     3   ar
    11     3     4   ar
    12     4     5   ar
    13     5     6   ar
    14     6     7   ar
    15     7    10    1
    16    10    11   ar
    17    11    12   ar
    18    12    13   ar
    19    13    14   ar
    20    14    15    1
    21    14    16   ar
    22     7     8   ar
    23     8     9   ar
    24    27    28    1
    25    28    29    1
    26    29    30    1
    27    30    31    1
    28    30    32    1
    29    30    25    1
    30     9     1   ar
    31     9     5   ar
    32    16    10   ar
    33    22    23    1
    34    18    20    1
    35    18    21    1
    36    32    33    1
    37    32    34    1
@<TRIPOS>MOLECULE
*****
 34 37 0 0 0
SMALL
GASTEIGER

@<TRIPOS>ATOM
      1 C         141.7580  143.1242  163.0765 C.ar    1  UNL1        0.0685
      2 C         142.7587  143.9321  162.3046 C.ar    1  UNL1        0.0885
      3 C         144.0432  144.3542  162.9540 C.ar    1  UNL1        0.1263
      4 N         144.3270  143.9685  164.3756 N.ar    1  UNL1       -0.1633
      5 N         143.3263  143.1606  165.1475 N.ar    1  UNL1       -0.2270
      6 C         143.3296  142.6356  166.5527 C.ar    1  UNL1        0.1005
      7 C         142.0471  141.8891  166.7715 C.ar    1  UNL1        0.0223
      8 C         141.2512  141.9526  165.5017 C.ar    1  UNL1        0.0220
      9 C         142.0418  142.7385  164.4980 C.ar    1  UNL1        0.0961
     10 C         141.6332  141.1999  168.0379 C.ar    1  UNL1        0.0230
     11 C         140.4818  141.7313  168.8391 C.ar    1  UNL1        0.0990
     12 N         140.0679  141.0421  170.1055 N.ar    1  UNL1       -0.2400
     13 C         140.8054  139.8216  170.5707 C.ar    1  UNL1        0.1284
     14 C         141.9568  139.2902  169.7696 C.ar    1  UNL1        0.1592
     15 F         142.6943  138.0697  170.2347 F       1  UNL1       -0.2025
     16 C         142.3707  139.9794  168.5031 C.ar    1  UNL1        0.0328
     17 C         142.4749  144.3178  160.8830 C.2     1  UNL1        0.2456
     18 N         141.5735  145.4796  160.5869 N.am    1  UNL1       -0.3252
     19 O         143.0925  143.5419  159.7577 O.2     1  UNL1       -0.2703
     20 H         141.1681  145.9889  161.3255 H       1  UNL1        0.1453
     21 H         141.3871  145.7328  159.6539 H       1  UNL1        0.1453
     22 N         140.4735  142.7021  162.4269 N.pl3   1  UNL1       -0.3327
     23 H         139.7435  143.3524  162.3113 H       1  UNL1        0.1468
     24 C         138.5676  141.6236  162.9083 C.3     1  UNL1        0.0029
     25 C         139.0991  140.4224  162.1839 C.3     1  UNL1        0.0282
     26 C         137.7856  139.8068  162.5658 C.3     1  UNL1        0.0029
     27 C         140.3014  141.2892  161.9535 C.3     1  UNL1        0.0702
     28 C         141.3014  140.4950  161.1666 C.3     1  UNL1        0.0208
     29 C         140.7171  139.1374  160.9107 C.3     1  UNL1        0.0160
     30 C         139.3560  139.0926  161.5394 C.3     1  UNL1        0.0404
     31 C         137.9888  138.7550  162.0560 C.3     1  UNL1        0.0156
     32 N         139.3271  137.6921  161.0029 N.3     1  UNL1       -0.3231
     33 H         140.1999  137.4979  160.5121 H       1  UNL1        0.1188
     34 H         138.5442  137.5916  160.3569 H       1  UNL1        0.1188
@<TRIPOS>BOND
     1    24    25    1
     2    25    26    1
     3    25    27    1
     4    27    22    1
     5    22     1    1
     6     1     2   ar
     7     2    17    1
     8    17    18   am
     9    17    19    2
    10     2     3   ar
    11     3     4   ar
    12     4     5   ar
    13     5     6   ar
    14     6     7   ar
    15     7    10    1
    16    10    11   ar
    17    11    12   ar
    18    12    13   ar
    19    13    14   ar
    20    14    15    1
    21    14    16   ar
    22     7     8   ar
    23     8     9   ar
    24    27    28    1
    25    28    29    1
    26    29    30    1
    27    30    31    1
    28    30    32    1
    29    30    25    1
    30     9     1   ar
    31     9     5   ar
    32    16    10   ar
    33    22    23    1
    34    18    20    1
    35    18    21    1
    36    32    33    1
    37    32    34    1
