@<TRIPOS>MOLECULE
*****
 34 37 0 0 0
SMALL
GASTEIGER

@<TRIPOS>ATOM
      1 C         143.3476  142.2605  165.9311 C.2     1  UNL1        0.2567
      2 O         144.0211  143.4636  165.3402 O.2     1  UNL1       -0.2694
      3 N         143.4248  140.9373  165.2288 N.am    1  UNL1       -0.2252
      4 C         142.8050  139.6537  165.6960 C.3     1  UNL1        0.1031
      5 C         143.1324  138.5885  164.6919 C.3     1  UNL1        0.0471
      6 C         143.9545  139.2138  163.6041 C.3     1  UNL1        0.1341
      7 C         144.1352  140.6654  163.9360 C.2     1  UNL1        0.2459
      8 O         144.8932  141.6690  163.1184 O.2     1  UNL1       -0.2730
      9 C         141.1067  142.5492  167.2136 C.ar    1  UNL1        0.1110
     10 N         140.3562  142.6693  168.5067 N.ar    1  UNL1       -0.2375
     11 C         141.0961  142.6208  169.8106 C.ar    1  UNL1        0.0994
     12 C         142.5866  142.4522  169.8214 C.ar    1  UNL1        0.0209
     13 C         143.3371  142.3321  168.5281 C.ar    1  UNL1        0.0081
     14 C         142.5972  142.3806  167.2243 C.ar    1  UNL1        0.0775
     15 S         140.3667  142.5977  165.9097 S.3     1  UNL1       -0.0948
     16 C         138.3010  143.6710  164.7560 C.3     1  UNL1        0.0130
     17 C         139.5687  143.8143  165.5450 C.3     1  UNL1        0.0637
     18 N         144.5001  138.5109  162.3966 N.3     1  UNL1       -0.2863
     19 H         144.8241  137.5958  162.7098 H       1  UNL1        0.1240
     20 C         143.6200  138.2741  161.2052 C.3     1  UNL1        0.1151
     21 C         142.9226  139.4274  160.5469 C.ar    1  UNL1        0.0739
     22 C         143.5823  140.6497  159.9805 C.ar    1  UNL1        0.1147
     23 N         142.5104  141.5387  159.4230 N.ar    1  UNL1       -0.2226
     24 C         141.1883  140.8658  159.6449 C.ar    1  UNL1        0.1786
     25 N         141.4430  139.5610  160.3395 N.ar    1  UNL1       -0.3070
     26 C         140.4011  138.5647  160.7540 C.3     1  UNL1        0.1340
     27 C         139.8551  138.5876  162.1508 C.ar    1  UNL1        0.0005
     28 C         139.0149  139.7427  162.6089 C.ar    1  UNL1       -0.0017
     29 C         138.4689  139.7656  164.0058 C.ar    1  UNL1        0.0100
     30 C         138.7631  138.6334  164.9447 C.ar    1  UNL1        0.0684
     31 C         139.6033  137.4783  164.4866 C.ar    1  UNL1        0.0100
     32 C         140.1493  137.4554  163.0897 C.ar    1  UNL1       -0.0017
     33 C         138.2171  138.6563  166.3416 C.1     1  UNL1        0.1004
     34 N         137.6711  138.6792  167.7385 N.1     1  UNL1       -0.1908
@<TRIPOS>BOND
     1    16    17    1
     2    17    15    1
     3    15     9    1
     4     9    10   ar
     5    10    11   ar
     6    11    12   ar
     7    12    13   ar
     8    13    14   ar
     9    14     1    1
    10     1     2    2
    11     1     3   am
    12     3     4    1
    13     4     5    1
    14     5     6    1
    15     6    18    1
    16    18    20    1
    17    20    21    1
    18    21    22   ar
    19    22    23   ar
    20    23    24   ar
    21    24    25   ar
    22    25    26    1
    23    26    27    1
    24    27    28   ar
    25    28    29   ar
    26    29    30   ar
    27    30    33    1
    28    33    34    3
    29    30    31   ar
    30    31    32   ar
    31     6     7    1
    32     7     8    2
    33    14     9   ar
    34     7     3   am
    35    25    21   ar
    36    32    27   ar
    37    18    19    1
@<TRIPOS>MOLECULE
*****
 34 37 0 0 0
SMALL
GASTEIGER

@<TRIPOS>ATOM
      1 C         142.7507  143.8139  162.4560 C.2     1  UNL1        0.2567
      2 O         143.7149  144.7930  163.0574 O.2     1  UNL1       -0.2694
      3 N         142.6149  142.4394  163.0409 N.am    1  UNL1       -0.2252
      4 C         141.6977  141.3588  162.5497 C.3     1  UNL1        0.1031
      5 C         141.8884  140.1556  163.4250 C.3     1  UNL1        0.0471
      6 C         142.9233  140.4926  164.4571 C.3     1  UNL1        0.1341
      7 C         143.3723  141.9040  164.2197 C.2     1  UNL1        0.2459
      8 O         144.3986  142.6492  165.0206 O.2     1  UNL1       -0.2730
      9 C         140.6544  144.9866  161.4658 C.ar    1  UNL1        0.1110
     10 N         139.8260  145.3821  160.2795 N.ar    1  UNL1       -0.2375
     11 C         140.2655  145.0004  158.8970 C.ar    1  UNL1        0.0994
     12 C         141.5333  144.2232  158.7009 C.ar    1  UNL1        0.0209
     13 C         142.3618  143.8276  159.8872 C.ar    1  UNL1        0.0081
     14 C         141.9223  144.2094  161.2697 C.ar    1  UNL1        0.0775
     15 S         140.2149  145.3684  162.8482 S.3     1  UNL1       -0.0948
     16 C         138.8875  144.8292  165.0155 C.3     1  UNL1        0.0130
     17 C         139.3690  144.4268  163.6531 C.3     1  UNL1        0.0637
     18 N         143.4218  139.5787  165.5370 N.3     1  UNL1       -0.2863
     19 H         144.2977  139.9754  165.8775 H       1  UNL1        0.1240
     20 C         142.5713  139.3085  166.7427 C.3     1  UNL1        0.1151
     21 C         141.9731  140.4503  167.5096 C.ar    1  UNL1        0.0739
     22 C         142.7298  141.5836  168.1367 C.ar    1  UNL1        0.1147
     23 N         141.7376  142.4932  168.7989 N.ar    1  UNL1       -0.2226
     24 C         140.3678  141.9220  168.5810 C.ar    1  UNL1        0.1786
     25 N         140.5134  140.6594  167.7842 N.ar    1  UNL1       -0.3070
     26 C         139.3954  139.7634  167.3400 C.3     1  UNL1        0.1340
     27 C         138.9899  139.7296  165.8964 C.ar    1  UNL1        0.0005
     28 C         138.4851  140.9749  165.2298 C.ar    1  UNL1       -0.0017
     29 C         138.0795  140.9411  163.7860 C.ar    1  UNL1        0.0100
     30 C         138.1786  139.6620  163.0089 C.ar    1  UNL1        0.0684
     31 C         138.6834  138.4167  163.6755 C.ar    1  UNL1        0.0100
     32 C         139.0891  138.4505  165.1192 C.ar    1  UNL1       -0.0017
     33 C         137.7730  139.6282  161.5651 C.1     1  UNL1        0.1004
     34 N         137.3674  139.5945  160.1214 N.1     1  UNL1       -0.1908
@<TRIPOS>BOND
     1    16    17    1
     2    17    15    1
     3    15     9    1
     4     9    10   ar
     5    10    11   ar
     6    11    12   ar
     7    12    13   ar
     8    13    14   ar
     9    14     1    1
    10     1     2    2
    11     1     3   am
    12     3     4    1
    13     4     5    1
    14     5     6    1
    15     6    18    1
    16    18    20    1
    17    20    21    1
    18    21    22   ar
    19    22    23   ar
    20    23    24   ar
    21    24    25   ar
    22    25    26    1
    23    26    27    1
    24    27    28   ar
    25    28    29   ar
    26    29    30   ar
    27    30    33    1
    28    33    34    3
    29    30    31   ar
    30    31    32   ar
    31     6     7    1
    32     7     8    2
    33    14     9   ar
    34     7     3   am
    35    25    21   ar
    36    32    27   ar
    37    18    19    1
@<TRIPOS>MOLECULE
*****
 34 37 0 0 0
SMALL
GASTEIGER

@<TRIPOS>ATOM
      1 C         141.5672  142.5305  166.7227 C.2     1  UNL1        0.2567
      2 O         140.1315  142.9644  166.7012 O.2     1  UNL1       -0.2694
      3 N         142.4397  142.7653  165.5253 N.am    1  UNL1       -0.2252
      4 C         143.8862  142.3884  165.4008 C.3     1  UNL1        0.1031
      5 C         144.3593  142.8084  164.0408 C.3     1  UNL1        0.0471
      6 C         143.2052  143.4449  163.3247 C.3     1  UNL1        0.1341
      7 C         142.0188  143.4183  164.2422 C.2     1  UNL1        0.2459
      8 O         140.6516  143.9512  163.9311 O.2     1  UNL1       -0.2730
      9 C         142.2927  140.3709  167.9716 C.ar    1  UNL1        0.1110
     10 N         142.8559  139.7022  169.1904 N.ar    1  UNL1       -0.2375
     11 C         143.2570  140.5244  170.3792 C.ar    1  UNL1        0.0994
     12 C         143.0947  142.0153  170.3491 C.ar    1  UNL1        0.0209
     13 C         142.5315  142.6841  169.1303 C.ar    1  UNL1        0.0081
     14 C         142.1305  141.8619  167.9415 C.ar    1  UNL1        0.0775
     15 S         141.8917  139.5487  166.7828 S.3     1  UNL1       -0.0948
     16 C         143.4754  138.9398  164.8154 C.3     1  UNL1        0.0130
     17 C         142.8784  138.6116  166.1517 C.3     1  UNL1        0.0637
     18 N         143.2326  144.0091  161.9351 N.3     1  UNL1       -0.2863
     19 H         144.2102  144.1973  161.7129 H       1  UNL1        0.1240
     20 C         142.6740  143.2146  160.7920 C.3     1  UNL1        0.1151
     21 C         141.1906  143.0400  160.6542 C.ar    1  UNL1        0.0739
     22 C         140.2485  143.9970  159.9857 C.ar    1  UNL1        0.1147
     23 N         138.8645  143.4262  160.0791 N.ar    1  UNL1       -0.2226
     24 C         138.9512  142.1165  160.8051 C.ar    1  UNL1        0.1786
     25 N         140.3888  141.8778  161.1606 N.ar    1  UNL1       -0.3070
     26 C         140.9296  140.6862  161.8937 C.3     1  UNL1        0.1340
     27 C         140.1475  140.0810  163.0214 C.ar    1  UNL1        0.0005
     28 C         139.3415  140.9597  163.9316 C.ar    1  UNL1       -0.0017
     29 C         138.5593  140.3544  165.0594 C.ar    1  UNL1        0.0100
     30 C         138.5831  138.8705  165.2770 C.ar    1  UNL1        0.0684
     31 C         139.3890  137.9918  164.3669 C.ar    1  UNL1        0.0100
     32 C         140.1712  138.5971  163.2391 C.ar    1  UNL1       -0.0017
     33 C         137.8009  138.2653  166.4048 C.1     1  UNL1        0.1004
     34 N         137.0187  137.6600  167.5326 N.1     1  UNL1       -0.1908
@<TRIPOS>BOND
     1    16    17    1
     2    17    15    1
     3    15     9    1
     4     9    10   ar
     5    10    11   ar
     6    11    12   ar
     7    12    13   ar
     8    13    14   ar
     9    14     1    1
    10     1     2    2
    11     1     3   am
    12     3     4    1
    13     4     5    1
    14     5     6    1
    15     6    18    1
    16    18    20    1
    17    20    21    1
    18    21    22   ar
    19    22    23   ar
    20    23    24   ar
    21    24    25   ar
    22    25    26    1
    23    26    27    1
    24    27    28   ar
    25    28    29   ar
    26    29    30   ar
    27    30    33    1
    28    33    34    3
    29    30    31   ar
    30    31    32   ar
    31     6     7    1
    32     7     8    2
    33    14     9   ar
    34     7     3   am
    35    25    21   ar
    36    32    27   ar
    37    18    19    1
@<TRIPOS>MOLECULE
*****
 34 37 0 0 0
SMALL
GASTEIGER

@<TRIPOS>ATOM
      1 C         142.7242  139.5845  166.4783 C.2     1  UNL1        0.2567
      2 O         142.8185  138.1423  166.0768 O.2     1  UNL1       -0.2694
      3 N         143.3924  140.6396  165.6476 N.am    1  UNL1       -0.2252
      4 C         143.3850  142.1142  165.9224 C.3     1  UNL1        0.1031
      5 C         144.1734  142.7913  164.8407 C.3     1  UNL1        0.0471
      6 C         144.6682  141.7352  163.8974 C.3     1  UNL1        0.1341
      7 C         144.1855  140.4054  164.3961 C.2     1  UNL1        0.2459
      8 O         144.4495  139.0749  163.7556 O.2     1  UNL1       -0.2730
      9 C         140.4896  140.2474  167.6260 C.ar    1  UNL1        0.1110
     10 N         139.7270  140.6345  168.8583 N.ar    1  UNL1       -0.2375
     11 C         140.4364  140.7457  170.1753 C.ar    1  UNL1        0.0994
     12 C         141.9083  140.4699  170.2600 C.ar    1  UNL1        0.0209
     13 C         142.6710  140.0828  169.0276 C.ar    1  UNL1        0.0081
     14 C         141.9616  139.9716  167.7106 C.ar    1  UNL1        0.0775
     15 S         139.7802  140.1362  166.3090 S.3     1  UNL1       -0.0948
     16 C         137.7984  138.5030  166.7029 C.3     1  UNL1        0.0130
     17 C         139.0450  138.8771  165.9571 C.3     1  UNL1        0.0637
     18 N         145.4996  141.9680  162.6708 N.3     1  UNL1       -0.2863
     19 H         146.0009  141.0992  162.4857 H       1  UNL1        0.1240
     20 C         144.8419  142.3711  161.3844 C.3     1  UNL1        0.1151
     21 C         143.8817  141.4379  160.7085 C.ar    1  UNL1        0.0739
     22 C         144.1028  139.9758  160.4565 C.ar    1  UNL1        0.1147
     23 N         142.8894  139.4371  159.7581 N.ar    1  UNL1       -0.2226
     24 C         141.9185  140.5663  159.5784 C.ar    1  UNL1        0.1786
     25 N         142.5317  141.8029  160.1658 N.ar    1  UNL1       -0.3070
     26 C         141.9050  143.1651  160.2038 C.3     1  UNL1        0.1340
     27 C         141.1612  143.6146  161.4262 C.ar    1  UNL1        0.0005
     28 C         140.4840  144.9529  161.4423 C.ar    1  UNL1       -0.0017
     29 C         139.7401  145.4025  162.6649 C.ar    1  UNL1        0.0100
     30 C         139.6734  144.5137  163.8713 C.ar    1  UNL1        0.0684
     31 C         140.3507  143.1754  163.8553 C.ar    1  UNL1        0.0100
     32 C         141.0945  142.7258  162.6327 C.ar    1  UNL1       -0.0017
     33 C         138.9295  144.9632  165.0939 C.1     1  UNL1        0.1004
     34 N         138.1857  145.4128  166.3164 N.1     1  UNL1       -0.1908
@<TRIPOS>BOND
     1    16    17    1
     2    17    15    1
     3    15     9    1
     4     9    10   ar
     5    10    11   ar
     6    11    12   ar
     7    12    13   ar
     8    13    14   ar
     9    14     1    1
    10     1     2    2
    11     1     3   am
    12     3     4    1
    13     4     5    1
    14     5     6    1
    15     6    18    1
    16    18    20    1
    17    20    21    1
    18    21    22   ar
    19    22    23   ar
    20    23    24   ar
    21    24    25   ar
    22    25    26    1
    23    26    27    1
    24    27    28   ar
    25    28    29   ar
    26    29    30   ar
    27    30    33    1
    28    33    34    3
    29    30    31   ar
    30    31    32   ar
    31     6     7    1
    32     7     8    2
    33    14     9   ar
    34     7     3   am
    35    25    21   ar
    36    32    27   ar
    37    18    19    1
@<TRIPOS>MOLECULE
*****
 34 37 0 0 0
SMALL
GASTEIGER

@<TRIPOS>ATOM
      1 C         143.6067  142.6380  165.1590 C.2     1  UNL1        0.2567
      2 O         144.9998  142.6424  164.6027 O.2     1  UNL1       -0.2694
      3 N         142.5263  143.4284  164.4823 N.am    1  UNL1       -0.2252
      4 C         141.0946  143.5196  164.9203 C.3     1  UNL1        0.1031
      5 C         140.3714  144.4140  163.9574 C.3     1  UNL1        0.0471
      6 C         141.3561  144.8755  162.9244 C.3     1  UNL1        0.1341
      7 C         142.6880  144.2664  163.2488 C.2     1  UNL1        0.2459
      8 O         143.9584  144.4611  162.4754 O.2     1  UNL1       -0.2730
      9 C         142.9876  140.3787  166.2827 C.ar    1  UNL1        0.1110
     10 N         142.6749  139.5838  167.5157 N.ar    1  UNL1       -0.2375
     11 C         142.6689  140.2532  168.8581 C.ar    1  UNL1        0.0994
     12 C         142.9754  141.7174  168.9675 C.ar    1  UNL1        0.0209
     13 C         143.2880  142.5124  167.7344 C.ar    1  UNL1        0.0081
     14 C         143.2941  141.8431  166.3920 C.ar    1  UNL1        0.0775
     15 S         142.9936  139.7094  164.9404 S.3     1  UNL1       -0.0948
     16 C         141.5411  137.5932  164.5378 C.3     1  UNL1        0.0130
     17 C         141.7410  139.0746  164.4131 C.3     1  UNL1        0.0637
     18 N         141.0610  145.7863  161.7696 N.3     1  UNL1       -0.2863
     19 H         141.9566  146.0149  161.3385 H       1  UNL1        0.1240
     20 C         140.1536  145.3286  160.6664 C.3     1  UNL1        0.1151
     21 C         140.4888  144.0940  159.8832 C.ar    1  UNL1        0.0739
     22 C         141.7233  143.8814  159.0581 C.ar    1  UNL1        0.1147
     23 N         141.6459  142.5112  158.4526 N.ar    1  UNL1       -0.2226
     24 C         140.3635  141.8770  158.9035 C.ar    1  UNL1        0.1786
     25 N         139.6484  142.8552  159.7877 N.ar    1  UNL1       -0.3070
     26 C         138.3252  142.6335  160.4585 C.3     1  UNL1        0.1340
     27 C         138.2551  141.8597  161.7415 C.ar    1  UNL1        0.0005
     28 C         137.7639  142.5252  162.9929 C.ar    1  UNL1       -0.0017
     29 C         137.6938  141.7514  164.2760 C.ar    1  UNL1        0.0100
     30 C         138.1149  140.3121  164.3077 C.ar    1  UNL1        0.0684
     31 C         138.6061  139.6466  163.0564 C.ar    1  UNL1        0.0100
     32 C         138.6762  140.4204  161.7733 C.ar    1  UNL1       -0.0017
     33 C         138.0448  139.5382  165.5908 C.1     1  UNL1        0.1004
     34 N         137.9747  138.7644  166.8739 N.1     1  UNL1       -0.1908
@<TRIPOS>BOND
     1    16    17    1
     2    17    15    1
     3    15     9    1
     4     9    10   ar
     5    10    11   ar
     6    11    12   ar
     7    12    13   ar
     8    13    14   ar
     9    14     1    1
    10     1     2    2
    11     1     3   am
    12     3     4    1
    13     4     5    1
    14     5     6    1
    15     6    18    1
    16    18    20    1
    17    20    21    1
    18    21    22   ar
    19    22    23   ar
    20    23    24   ar
    21    24    25   ar
    22    25    26    1
    23    26    27    1
    24    27    28   ar
    25    28    29   ar
    26    29    30   ar
    27    30    33    1
    28    33    34    3
    29    30    31   ar
    30    31    32   ar
    31     6     7    1
    32     7     8    2
    33    14     9   ar
    34     7     3   am
    35    25    21   ar
    36    32    27   ar
    37    18    19    1
@<TRIPOS>MOLECULE
*****
 34 37 0 0 0
SMALL
GASTEIGER

@<TRIPOS>ATOM
      1 C         138.9072  142.8426  160.8417 C.2     1  UNL1        0.2567
      2 O         137.7667  143.1347  161.7713 O.2     1  UNL1       -0.2694
      3 N         140.2727  143.3898  161.1349 N.am    1  UNL1       -0.2252
      4 C         141.5030  143.1830  160.3019 C.3     1  UNL1        0.1031
      5 C         142.6384  143.9052  160.9647 C.3     1  UNL1        0.0471
      6 C         142.1098  144.5584  162.2073 C.3     1  UNL1        0.1341
      7 C         140.6478  144.2398  162.3125 C.2     1  UNL1        0.2459
      8 O         139.7232  144.6919  163.4037 O.2     1  UNL1       -0.2730
      9 C         138.7933  140.5098  159.7035 C.ar    1  UNL1        0.1110
     10 N         138.5682  139.6706  158.4809 N.ar    1  UNL1       -0.2375
     11 C         138.2320  140.3248  157.1736 C.ar    1  UNL1        0.0994
     12 C         138.1209  141.8183  157.0890 C.ar    1  UNL1        0.0209
     13 C         138.3460  142.6576  158.3117 C.ar    1  UNL1        0.0081
     14 C         138.6822  142.0034  159.6190 C.ar    1  UNL1        0.0775
     15 S         139.1294  139.8556  161.0108 S.3     1  UNL1       -0.0948
     16 C         138.4862  137.8630  162.5489 C.3     1  UNL1        0.0130
     17 C         138.0871  139.0636  161.7431 C.3     1  UNL1        0.0637
     18 N         142.9039  145.3849  163.1749 N.3     1  UNL1       -0.2863
     19 H         142.2313  145.8787  163.7616 H       1  UNL1        0.1240
     20 C         143.8819  144.7234  164.1000 C.3     1  UNL1        0.1151
     21 C         143.9759  143.2271  164.1468 C.ar    1  UNL1        0.0739
     22 C         145.0520  142.3913  163.5194 C.ar    1  UNL1        0.1147
     23 N         144.7514  140.9515  163.8139 N.ar    1  UNL1       -0.2226
     24 C         143.4897  140.8975  164.6233 C.ar    1  UNL1        0.1786
     25 N         143.0103  142.3039  164.8290 N.ar    1  UNL1       -0.3070
     26 C         141.7813  142.7149  165.5843 C.3     1  UNL1        0.1340
     27 C         140.7644  141.6855  165.9791 C.ar    1  UNL1        0.0005
     28 C         139.6916  141.2813  165.0118 C.ar    1  UNL1       -0.0017
     29 C         138.6747  140.2518  165.4067 C.ar    1  UNL1        0.0100
     30 C         138.7305  139.6264  166.7689 C.ar    1  UNL1        0.0684
     31 C         139.8032  140.0306  167.7363 C.ar    1  UNL1        0.0100
     32 C         140.8202  141.0601  167.3414 C.ar    1  UNL1       -0.0017
     33 C         137.7135  138.5969  167.1638 C.1     1  UNL1        0.1004
     34 N         136.6966  137.5674  167.5587 N.1     1  UNL1       -0.1908
@<TRIPOS>BOND
     1    16    17    1
     2    17    15    1
     3    15     9    1
     4     9    10   ar
     5    10    11   ar
     6    11    12   ar
     7    12    13   ar
     8    13    14   ar
     9    14     1    1
    10     1     2    2
    11     1     3   am
    12     3     4    1
    13     4     5    1
    14     5     6    1
    15     6    18    1
    16    18    20    1
    17    20    21    1
    18    21    22   ar
    19    22    23   ar
    20    23    24   ar
    21    24    25   ar
    22    25    26    1
    23    26    27    1
    24    27    28   ar
    25    28    29   ar
    26    29    30   ar
    27    30    33    1
    28    33    34    3
    29    30    31   ar
    30    31    32   ar
    31     6     7    1
    32     7     8    2
    33    14     9   ar
    34     7     3   am
    35    25    21   ar
    36    32    27   ar
    37    18    19    1
@<TRIPOS>MOLECULE
*****
 34 37 0 0 0
SMALL
GASTEIGER

@<TRIPOS>ATOM
      1 C         141.7554  140.8100  162.6968 C.2     1  UNL1        0.2567
      2 O         141.3789  139.5414  161.9904 O.2     1  UNL1       -0.2694
      3 N         142.2772  140.7593  164.1022 N.am    1  UNL1       -0.2252
      4 C         142.6919  141.9383  164.9317 C.3     1  UNL1        0.1031
      5 C         143.1469  141.4285  166.2670 C.3     1  UNL1        0.0471
      6 C         143.0134  139.9344  166.2628 C.3     1  UNL1        0.1341
      7 C         142.4759  139.5209  164.9248 C.2     1  UNL1        0.2459
      8 O         142.1877  138.1156  164.4865 O.2     1  UNL1       -0.2730
      9 C         142.7841  142.7345  161.2867 C.ar    1  UNL1        0.1110
     10 N         142.6388  144.0536  160.5877 N.ar    1  UNL1       -0.2375
     11 C         141.3196  144.7675  160.5996 C.ar    1  UNL1        0.0994
     12 C         140.1457  144.1622  161.3106 C.ar    1  UNL1        0.0209
     13 C         140.2909  142.8430  162.0097 C.ar    1  UNL1        0.0081
     14 C         141.6101  142.1291  161.9977 C.ar    1  UNL1        0.0775
     15 S         144.1033  142.0206  161.2748 S.3     1  UNL1       -0.0948
     16 C         145.7198  141.6597  163.2764 C.3     1  UNL1        0.0130
     17 C         145.2271  142.5070  162.1410 C.3     1  UNL1        0.0637
     18 N         143.3571  139.0153  167.3973 N.3     1  UNL1       -0.2863
     19 H         144.3438  139.1642  167.6083 H       1  UNL1        0.1240
     20 C         142.6158  139.1187  168.6972 C.3     1  UNL1        0.1151
     21 C         142.3095  140.4662  169.2807 C.ar    1  UNL1        0.0739
     22 C         143.3144  141.4500  169.8025 C.ar    1  UNL1        0.1147
     23 N         142.5705  142.6583  170.2892 N.ar    1  UNL1       -0.2226
     24 C         141.1060  142.4212  170.0681 C.ar    1  UNL1        0.1786
     25 N         140.9447  141.0663  169.4448 N.ar    1  UNL1       -0.3070
     26 C         139.6464  140.4244  169.0542 C.3     1  UNL1        0.1340
     27 C         139.2638  140.3261  167.6073 C.ar    1  UNL1        0.0005
     28 C         139.5191  141.4803  166.6839 C.ar    1  UNL1       -0.0017
     29 C         139.1365  141.3819  165.2368 C.ar    1  UNL1        0.0100
     30 C         138.4986  140.1294  164.7131 C.ar    1  UNL1        0.0684
     31 C         138.2433  138.9752  165.6365 C.ar    1  UNL1        0.0100
     32 C         138.6260  139.0736  167.0836 C.ar    1  UNL1       -0.0017
     33 C         138.1160  140.0310  163.2661 C.1     1  UNL1        0.1004
     34 N         137.7334  139.9327  161.8190 N.1     1  UNL1       -0.1908
@<TRIPOS>BOND
     1    16    17    1
     2    17    15    1
     3    15     9    1
     4     9    10   ar
     5    10    11   ar
     6    11    12   ar
     7    12    13   ar
     8    13    14   ar
     9    14     1    1
    10     1     2    2
    11     1     3   am
    12     3     4    1
    13     4     5    1
    14     5     6    1
    15     6    18    1
    16    18    20    1
    17    20    21    1
    18    21    22   ar
    19    22    23   ar
    20    23    24   ar
    21    24    25   ar
    22    25    26    1
    23    26    27    1
    24    27    28   ar
    25    28    29   ar
    26    29    30   ar
    27    30    33    1
    28    33    34    3
    29    30    31   ar
    30    31    32   ar
    31     6     7    1
    32     7     8    2
    33    14     9   ar
    34     7     3   am
    35    25    21   ar
    36    32    27   ar
    37    18    19    1
@<TRIPOS>MOLECULE
*****
 34 37 0 0 0
SMALL
GASTEIGER

@<TRIPOS>ATOM
      1 C         141.8322  138.6901  162.0232 C.2     1  UNL1        0.2567
      2 O         141.0963  137.3868  161.9237 O.2     1  UNL1       -0.2694
      3 N         142.2996  139.1873  163.3590 N.am    1  UNL1       -0.2252
      4 C         143.0435  140.4647  163.6133 C.3     1  UNL1        0.1031
      5 C         143.3088  140.5613  165.0865 C.3     1  UNL1        0.0471
      6 C         142.7288  139.3435  165.7428 C.3     1  UNL1        0.1341
      7 C         142.1051  138.4943  164.6751 C.2     1  UNL1        0.2459
      8 O         141.4091  137.1825  164.8864 O.2     1  UNL1       -0.2730
      9 C         141.1165  140.5367  160.3416 C.ar    1  UNL1        0.1110
     10 N         141.3850  141.3427  159.1054 N.ar    1  UNL1       -0.2375
     11 C         142.6379  141.1081  158.3146 C.ar    1  UNL1        0.0994
     12 C         143.6222  140.0676  158.7600 C.ar    1  UNL1        0.0209
     13 C         143.3537  139.2615  159.9963 C.ar    1  UNL1        0.0081
     14 C         142.1008  139.4961  160.7871 C.ar    1  UNL1        0.0775
     15 S         139.8636  140.7712  161.1324 S.3     1  UNL1       -0.0948
     16 C         137.9695  139.0183  161.4314 C.3     1  UNL1        0.0130
     17 C         138.5666  140.1700  160.6784 C.3     1  UNL1        0.0637
     18 N         142.7660  139.0300  167.2091 N.3     1  UNL1       -0.2863
     19 H         143.6496  138.5521  167.3857 H       1  UNL1        0.1240
     20 C         142.6639  140.1374  168.2157 C.3     1  UNL1        0.1151
     21 C         141.4356  140.2663  169.0669 C.ar    1  UNL1        0.0739
     22 C         141.4075  140.5969  170.5298 C.ar    1  UNL1        0.1147
     23 N         139.9742  140.6222  170.9718 N.ar    1  UNL1       -0.2226
     24 C         139.1167  140.3072  169.7821 C.ar    1  UNL1        0.1786
     25 N         140.0198  140.0872  168.6048 N.ar    1  UNL1       -0.3070
     26 C         139.5838  139.7478  167.2103 C.3     1  UNL1        0.1340
     27 C         139.3335  140.8421  166.2155 C.ar    1  UNL1        0.0005
     28 C         140.1303  142.1113  166.2803 C.ar    1  UNL1       -0.0017
     29 C         139.8800  143.2057  165.2854 C.ar    1  UNL1        0.0100
     30 C         138.8328  143.0309  164.2258 C.ar    1  UNL1        0.0684
     31 C         138.0359  141.7617  164.1611 C.ar    1  UNL1        0.0100
     32 C         138.2862  140.6673  165.1559 C.ar    1  UNL1       -0.0017
     33 C         138.5824  144.1253  163.2310 C.1     1  UNL1        0.1004
     34 N         138.3321  145.2197  162.2362 N.1     1  UNL1       -0.1908
@<TRIPOS>BOND
     1    16    17    1
     2    17    15    1
     3    15     9    1
     4     9    10   ar
     5    10    11   ar
     6    11    12   ar
     7    12    13   ar
     8    13    14   ar
     9    14     1    1
    10     1     2    2
    11     1     3   am
    12     3     4    1
    13     4     5    1
    14     5     6    1
    15     6    18    1
    16    18    20    1
    17    20    21    1
    18    21    22   ar
    19    22    23   ar
    20    23    24   ar
    21    24    25   ar
    22    25    26    1
    23    26    27    1
    24    27    28   ar
    25    28    29   ar
    26    29    30   ar
    27    30    33    1
    28    33    34    3
    29    30    31   ar
    30    31    32   ar
    31     6     7    1
    32     7     8    2
    33    14     9   ar
    34     7     3   am
    35    25    21   ar
    36    32    27   ar
    37    18    19    1
@<TRIPOS>MOLECULE
*****
 34 37 0 0 0
SMALL
GASTEIGER

@<TRIPOS>ATOM
      1 C         143.8088  143.7633  162.4805 C.2     1  UNL1        0.2567
      2 O         144.4093  145.1376  162.5087 O.2     1  UNL1       -0.2694
      3 N         143.5784  143.0192  163.7623 N.am    1  UNL1       -0.2252
      4 C         142.9896  141.6455  163.8908 C.3     1  UNL1        0.1031
      5 C         142.9436  141.2953  165.3486 C.3     1  UNL1        0.0471
      6 C         143.5040  142.4526  166.1212 C.3     1  UNL1        0.1341
      7 C         143.8963  143.5179  165.1408 C.2     1  UNL1        0.2459
      8 O         144.5005  144.8484  165.4795 O.2     1  UNL1       -0.2730
      9 C         142.0988  143.4119  160.5563 C.ar    1  UNL1        0.1110
     10 N         141.7287  142.7818  159.2463 N.ar    1  UNL1       -0.2375
     11 C         142.6984  141.8732  158.5506 C.ar    1  UNL1        0.0994
     12 C         144.0382  141.5946  159.1648 C.ar    1  UNL1        0.0209
     13 C         144.4084  142.2246  160.4748 C.ar    1  UNL1        0.0081
     14 C         143.4387  143.1333  161.1706 C.ar    1  UNL1        0.0775
     15 S         141.1291  144.3205  161.2520 S.3     1  UNL1       -0.0948
     16 C         138.9236  144.5762  162.6011 C.3     1  UNL1        0.0130
     17 C         140.1048  143.7495  162.1871 C.3     1  UNL1        0.0637
     18 N         143.6470  142.5307  167.6123 N.3     1  UNL1       -0.2863
     19 H         143.3157  143.4540  167.8919 H       1  UNL1        0.1240
     20 C         142.9435  141.5352  168.4864 C.3     1  UNL1        0.1151
     21 C         141.7950  141.9721  169.3466 C.ar    1  UNL1        0.0739
     22 C         141.7960  143.1345  170.2948 C.ar    1  UNL1        0.1147
     23 N         140.4455  143.2041  170.9440 N.ar    1  UNL1       -0.2226
     24 C         139.6099  142.0849  170.3970 C.ar    1  UNL1        0.1786
     25 N         140.4440  141.3235  169.4098 N.ar    1  UNL1       -0.3070
     26 C         140.0042  140.1240  168.6237 C.3     1  UNL1        0.1340
     27 C         139.4808  140.2925  167.2282 C.ar    1  UNL1        0.0005
     28 C         139.7111  141.5784  166.4910 C.ar    1  UNL1       -0.0017
     29 C         139.1876  141.7470  165.0954 C.ar    1  UNL1        0.0100
     30 C         138.4339  140.6297  164.4371 C.ar    1  UNL1        0.0684
     31 C         138.2036  139.3438  165.1743 C.ar    1  UNL1        0.0100
     32 C         138.7270  139.1752  166.5699 C.ar    1  UNL1       -0.0017
     33 C         137.9104  140.7982  163.0415 C.1     1  UNL1        0.1004
     34 N         137.3870  140.9668  161.6459 N.1     1  UNL1       -0.1908
@<TRIPOS>BOND
     1    16    17    1
     2    17    15    1
     3    15     9    1
     4     9    10   ar
     5    10    11   ar
     6    11    12   ar
     7    12    13   ar
     8    13    14   ar
     9    14     1    1
    10     1     2    2
    11     1     3   am
    12     3     4    1
    13     4     5    1
    14     5     6    1
    15     6    18    1
    16    18    20    1
    17    20    21    1
    18    21    22   ar
    19    22    23   ar
    20    23    24   ar
    21    24    25   ar
    22    25    26    1
    23    26    27    1
    24    27    28   ar
    25    28    29   ar
    26    29    30   ar
    27    30    33    1
    28    33    34    3
    29    30    31   ar
    30    31    32   ar
    31     6     7    1
    32     7     8    2
    33    14     9   ar
    34     7     3   am
    35    25    21   ar
    36    32    27   ar
    37    18    19    1
