@<TRIPOS>MOLECULE
*****
 42 47 0 0 0
SMALL
GASTEIGER

@<TRIPOS>ATOM
      1 C         137.9934  142.8866  162.8262 C.3     1  UNL1        0.1200
      2 C         138.1887  142.5333  161.3815 C.3     1  UNL1        0.0311
      3 C         138.1412  141.0984  160.9473 C.3     1  UNL1        0.0194
      4 C         137.8983  140.0166  161.9577 C.3     1  UNL1        0.0700
      5 C         137.7029  140.3699  163.4024 C.3     1  UNL1        0.0194
      6 C         137.7505  141.8049  163.8366 C.3     1  UNL1        0.0311
      7 C         137.9158  140.7887  162.2433 C.3     1  UNL1        0.1563
      8 O         137.9588  142.0862  162.6360 O.3     1  UNL1       -0.3547
      9 C         138.0410  144.3215  163.2605 C.3     1  UNL1        0.1661
     10 O         137.1359  145.3302  162.6174 O.3     1  UNL1       -0.3793
     11 H         137.2929  146.2028  163.0109 H       1  UNL1        0.2106
     12 C         138.9936  144.7479  164.3379 C.3     1  UNL1        0.1654
     13 O         138.4810  145.4656  165.5512 O.3     1  UNL1       -0.3774
     14 H         137.5195  145.5727  165.4814 H       1  UNL1        0.2109
     15 C         141.0043  141.9322  167.2152 C.ar    1  UNL1        0.2250
     16 C         142.4694  141.6409  167.0792 C.ar    1  UNL1        0.0593
     17 C         143.2643  142.2882  165.9842 C.ar    1  UNL1        0.0254
     18 C         142.5941  143.2267  165.0251 C.ar    1  UNL1        0.0991
     19 N         143.3890  143.8740  163.9300 N.ar    1  UNL1       -0.2400
     20 C         142.7189  144.8125  162.9709 C.ar    1  UNL1        0.1282
     21 C         141.2537  145.1039  163.1069 C.ar    1  UNL1        0.1590
     22 F         140.5835  146.0424  162.1478 F       1  UNL1       -0.2027
     23 C         140.4587  144.4566  164.2019 C.ar    1  UNL1        0.0549
     24 C         141.1290  143.5180  165.1611 C.ar    1  UNL1        0.1025
     25 N         140.3341  142.8708  166.2561 N.ar    1  UNL1       -0.2103
     26 C         139.4782  140.0017  168.0484 C.3     1  UNL1        0.2542
     27 O         140.2094  141.2849  168.3103 O.3     1  UNL1       -0.4561
     28 N         137.8507  138.5817  161.5234 N.3     1  UNL1       -0.2926
     29 H         137.3081  138.5531  160.6602 H       1  UNL1        0.1236
     30 C         139.1248  137.8355  161.2590 C.3     1  UNL1        0.1152
     31 C         140.3269  138.0739  162.1238 C.ar    1  UNL1        0.0765
     32 C         140.5021  137.2976  163.3953 C.ar    1  UNL1        0.0193
     33 C         141.7042  137.5361  164.2601 C.ar    1  UNL1        0.0411
     34 C         142.7313  138.5508  163.8534 C.ar    1  UNL1        0.1708
     35 C         142.5562  139.3271  162.5819 C.ar    1  UNL1        0.1682
     36 N         141.3540  139.0887  161.7171 N.ar    1  UNL1       -0.2304
     37 N         143.5833  140.3418  162.1753 N.am    1  UNL1       -0.2639
     38 C         144.7855  140.5803  163.0400 C.2     1  UNL1        0.2718
     39 O         145.8126  141.5950  162.6334 O.2     1  UNL1       -0.2707
     40 C         144.9606  139.8040  164.3116 C.3     1  UNL1        0.2898
     41 O         143.9335  138.7892  164.7183 O.3     1  UNL1       -0.4628
     42 H         143.4684  140.8513  161.3407 H       1  UNL1        0.1565
@<TRIPOS>BOND
     1    26    27    1
     2    27    15    1
     3    15    16   ar
     4    16    17   ar
     5    17    18   ar
     6    18    19   ar
     7    19    20   ar
     8    20    21   ar
     9    21    22    1
    10    21    23   ar
    11    23    12    1
    12    12    13    1
    13    12     9    1
    14     9    10    1
    15     9     1    1
    16     1     2    1
    17     2     3    1
    18     3     4    1
    19     4    28    1
    20    28    30    1
    21    30    31    1
    22    31    32   ar
    23    32    33   ar
    24    33    34   ar
    25    34    35   ar
    26    35    36   ar
    27    35    37    1
    28    37    38   am
    29    38    39    2
    30    38    40    1
    31    40    41    1
    32     4     5    1
    33     5     6    1
    34     4     7    1
    35     7     8    1
    36    23    24   ar
    37    24    25   ar
    38    25    15   ar
    39    24    18   ar
    40     6     1    1
    41     8     1    1
    42    36    31   ar
    43    41    34    1
    44    13    14    1
    45    10    11    1
    46    28    29    1
    47    37    42    1
@<TRIPOS>MOLECULE
*****
 42 47 0 0 0
SMALL
GASTEIGER

@<TRIPOS>ATOM
      1 C         143.9266  142.6409  163.1279 C.3     1  UNL1        0.1200
      2 C         143.5240  143.0853  161.7530 C.3     1  UNL1        0.0311
      3 C         142.5317  144.1975  161.5849 C.3     1  UNL1        0.0194
      4 C         141.9420  144.8653  162.7917 C.3     1  UNL1        0.0700
      5 C         142.3446  144.4209  164.1666 C.3     1  UNL1        0.0194
      6 C         143.3370  143.3086  164.3346 C.3     1  UNL1        0.0311
      7 C         142.4820  144.2603  162.9339 C.3     1  UNL1        0.1563
      8 O         143.3793  143.2546  163.0859 O.3     1  UNL1       -0.3547
      9 C         144.9189  141.5286  163.2960 C.3     1  UNL1        0.1661
     10 O         146.3859  141.8033  163.1458 O.3     1  UNL1       -0.3793
     11 H         146.8843  140.9828  163.2846 H       1  UNL1        0.2106
     12 C         144.4442  140.1417  163.6143 C.3     1  UNL1        0.1654
     13 O         145.2443  139.2679  164.5343 O.3     1  UNL1       -0.3774
     14 H         146.0325  139.7484  164.8323 H       1  UNL1        0.2109
     15 C         140.8059  139.5705  166.2001 C.ar    1  UNL1        0.2250
     16 C         139.5313  139.0574  165.5984 C.ar    1  UNL1        0.0593
     17 C         139.4694  138.7348  164.1348 C.ar    1  UNL1        0.0254
     18 C         140.6821  138.9252  163.2729 C.ar    1  UNL1        0.0991
     19 N         140.6202  138.6026  161.8093 N.ar    1  UNL1       -0.2400
     20 C         141.8330  138.7930  160.9474 C.ar    1  UNL1        0.1282
     21 C         143.1077  139.3061  161.5490 C.ar    1  UNL1        0.1590
     22 F         144.3204  139.4965  160.6871 F       1  UNL1       -0.2027
     23 C         143.1696  139.6287  163.0126 C.ar    1  UNL1        0.0549
     24 C         141.9568  139.4383  163.8746 C.ar    1  UNL1        0.1025
     25 N         142.0187  139.7609  165.3381 N.ar    1  UNL1       -0.2103
     26 C         139.6010  140.0852  168.4435 C.3     1  UNL1        0.2542
     27 O         140.8678  139.8931  167.6636 O.3     1  UNL1       -0.4561
     28 N         140.9497  145.9775  162.6236 N.3     1  UNL1       -0.2926
     29 H         141.1051  146.3732  161.6964 H       1  UNL1        0.1236
     30 C         139.4806  145.6949  162.7331 C.3     1  UNL1        0.1152
     31 C         138.9624  144.3102  162.4805 C.ar    1  UNL1        0.0765
     32 C         138.4187  143.4941  163.6157 C.ar    1  UNL1        0.0193
     33 C         137.9005  142.1094  163.3631 C.ar    1  UNL1        0.0411
     34 C         137.9259  141.5406  161.9753 C.ar    1  UNL1        0.1708
     35 C         138.4695  142.3566  160.8402 C.ar    1  UNL1        0.1682
     36 N         138.9878  143.7414  161.0927 N.ar    1  UNL1       -0.2304
     37 N         138.4949  141.7878  159.4524 N.am    1  UNL1       -0.2639
     38 C         137.9767  140.4030  159.1998 C.2     1  UNL1        0.2718
     39 O         138.0021  139.8342  157.8121 O.2     1  UNL1       -0.2707
     40 C         137.4330  139.5870  160.3350 C.3     1  UNL1        0.2898
     41 O         137.4076  140.1557  161.7228 O.3     1  UNL1       -0.4628
     42 H         138.8517  142.3234  158.7074 H       1  UNL1        0.1565
@<TRIPOS>BOND
     1    26    27    1
     2    27    15    1
     3    15    16   ar
     4    16    17   ar
     5    17    18   ar
     6    18    19   ar
     7    19    20   ar
     8    20    21   ar
     9    21    22    1
    10    21    23   ar
    11    23    12    1
    12    12    13    1
    13    12     9    1
    14     9    10    1
    15     9     1    1
    16     1     2    1
    17     2     3    1
    18     3     4    1
    19     4    28    1
    20    28    30    1
    21    30    31    1
    22    31    32   ar
    23    32    33   ar
    24    33    34   ar
    25    34    35   ar
    26    35    36   ar
    27    35    37    1
    28    37    38   am
    29    38    39    2
    30    38    40    1
    31    40    41    1
    32     4     5    1
    33     5     6    1
    34     4     7    1
    35     7     8    1
    36    23    24   ar
    37    24    25   ar
    38    25    15   ar
    39    24    18   ar
    40     6     1    1
    41     8     1    1
    42    36    31   ar
    43    41    34    1
    44    13    14    1
    45    10    11    1
    46    28    29    1
    47    37    42    1
@<TRIPOS>MOLECULE
*****
 42 47 0 0 0
SMALL
GASTEIGER

@<TRIPOS>ATOM
      1 C         143.3108  139.0369  161.8139 C.3     1  UNL1        0.1200
      2 C         143.7624  140.2927  161.1290 C.3     1  UNL1        0.0311
      3 C         144.6294  141.2751  161.8593 C.3     1  UNL1        0.0194
      4 C         145.0448  141.0017  163.2745 C.3     1  UNL1        0.0700
      5 C         144.5932  139.7459  163.9594 C.3     1  UNL1        0.0194
      6 C         143.7262  138.7635  163.2291 C.3     1  UNL1        0.0311
      7 C         144.5691  140.4338  162.9152 C.3     1  UNL1        0.1563
      8 O         143.7852  139.5455  162.2549 O.3     1  UNL1       -0.3547
      9 C         142.4439  138.0546  161.0837 C.3     1  UNL1        0.1661
     10 O         143.0592  136.8547  160.4267 O.3     1  UNL1       -0.3793
     11 H         142.3649  136.3268  160.0022 H       1  UNL1        0.2106
     12 C         140.9615  138.2720  161.0105 C.3     1  UNL1        0.1654
     13 O         140.2672  138.2645  159.6809 O.3     1  UNL1       -0.3774
     14 H         140.9167  138.1071  158.9778 H       1  UNL1        0.2109
     15 C         138.2645  141.8570  161.3630 C.ar    1  UNL1        0.2250
     16 C         137.4765  142.0820  162.6194 C.ar    1  UNL1        0.0593
     17 C         137.5875  141.1121  163.7582 C.ar    1  UNL1        0.0254
     18 C         138.4865  139.9171  163.6407 C.ar    1  UNL1        0.0991
     19 N         138.5975  138.9472  164.7795 N.ar    1  UNL1       -0.2400
     20 C         139.4964  137.7522  164.6620 C.ar    1  UNL1        0.1282
     21 C         140.2845  137.5271  163.4056 C.ar    1  UNL1        0.1590
     22 F         141.1835  136.3322  163.2881 F       1  UNL1       -0.2027
     23 C         140.1735  138.4971  162.2668 C.ar    1  UNL1        0.0549
     24 C         139.2745  139.6921  162.3843 C.ar    1  UNL1        0.1025
     25 N         139.1635  140.6620  161.2455 N.ar    1  UNL1       -0.2103
     26 C         139.2994  142.9998  159.2719 C.3     1  UNL1        0.2542
     27 O         138.1535  142.8269  160.2242 O.3     1  UNL1       -0.4561
     28 N         145.9118  141.9840  164.0047 N.3     1  UNL1       -0.2926
     29 H         146.4846  142.4508  163.3016 H       1  UNL1        0.1236
     30 C         145.2854  143.0624  164.8383 C.3     1  UNL1        0.1152
     31 C         143.8178  143.3472  164.7166 C.ar    1  UNL1        0.0765
     32 C         142.8517  142.7332  165.6860 C.ar    1  UNL1        0.0193
     33 C         141.3841  143.0181  165.5643 C.ar    1  UNL1        0.0411
     34 C         140.8825  143.9170  164.4733 C.ar    1  UNL1        0.1708
     35 C         141.8485  144.5310  163.5039 C.ar    1  UNL1        0.1682
     36 N         143.3162  144.2461  163.6256 N.ar    1  UNL1       -0.2304
     37 N         141.3469  145.4299  162.4128 N.am    1  UNL1       -0.2639
     38 C         139.8793  145.7147  162.2911 C.2     1  UNL1        0.2718
     39 O         139.3777  146.6136  161.2001 O.2     1  UNL1       -0.2707
     40 C         138.9131  145.1007  163.2606 C.3     1  UNL1        0.2898
     41 O         139.4147  144.2018  164.3516 O.3     1  UNL1       -0.4628
     42 H         141.9810  145.8329  161.7766 H       1  UNL1        0.1565
@<TRIPOS>BOND
     1    26    27    1
     2    27    15    1
     3    15    16   ar
     4    16    17   ar
     5    17    18   ar
     6    18    19   ar
     7    19    20   ar
     8    20    21   ar
     9    21    22    1
    10    21    23   ar
    11    23    12    1
    12    12    13    1
    13    12     9    1
    14     9    10    1
    15     9     1    1
    16     1     2    1
    17     2     3    1
    18     3     4    1
    19     4    28    1
    20    28    30    1
    21    30    31    1
    22    31    32   ar
    23    32    33   ar
    24    33    34   ar
    25    34    35   ar
    26    35    36   ar
    27    35    37    1
    28    37    38   am
    29    38    39    2
    30    38    40    1
    31    40    41    1
    32     4     5    1
    33     5     6    1
    34     4     7    1
    35     7     8    1
    36    23    24   ar
    37    24    25   ar
    38    25    15   ar
    39    24    18   ar
    40     6     1    1
    41     8     1    1
    42    36    31   ar
    43    41    34    1
    44    13    14    1
    45    10    11    1
    46    28    29    1
    47    37    42    1
@<TRIPOS>MOLECULE
*****
 42 47 0 0 0
SMALL
GASTEIGER

@<TRIPOS>ATOM
      1 C         143.6098  143.4913  161.7914 C.3     1  UNL1        0.1200
      2 C         143.4587  144.3445  163.0158 C.3     1  UNL1        0.0311
      3 C         142.2276  145.1815  163.1994 C.3     1  UNL1        0.0194
      4 C         141.1475  145.1654  162.1586 C.3     1  UNL1        0.0700
      5 C         141.2986  144.3122  160.9341 C.3     1  UNL1        0.0194
      6 C         142.5298  143.4752  160.7506 C.3     1  UNL1        0.0311
      7 C         141.8040  144.6899  162.0140 C.3     1  UNL1        0.1563
      8 O         142.9172  143.9331  161.8479 O.3     1  UNL1       -0.3547
      9 C         144.8409  142.6543  161.6077 C.3     1  UNL1        0.1661
     10 O         145.6892  142.8267  160.3827 O.3     1  UNL1       -0.3793
     11 H         146.4402  142.2139  160.4206 H       1  UNL1        0.2106
     12 C         145.2237  141.6448  162.6491 C.3     1  UNL1        0.1654
     13 O         146.5462  141.7535  163.3486 O.3     1  UNL1       -0.3774
     14 H         147.0272  142.5259  163.0125 H       1  UNL1        0.2109
     15 C         143.2121  141.5473  166.6733 C.ar    1  UNL1        0.2250
     16 C         142.2725  140.4291  167.0151 C.ar    1  UNL1        0.0593
     17 C         142.0034  139.3435  166.0156 C.ar    1  UNL1        0.0254
     18 C         142.6739  139.3760  164.6743 C.ar    1  UNL1        0.0991
     19 N         142.4049  138.2904  163.6748 N.ar    1  UNL1       -0.2400
     20 C         143.0754  138.3229  162.3334 C.ar    1  UNL1        0.1282
     21 C         144.0150  139.4411  161.9915 C.ar    1  UNL1        0.1590
     22 F         144.6855  139.4736  160.6501 F       1  UNL1       -0.2027
     23 C         144.2841  140.5267  162.9910 C.ar    1  UNL1        0.0549
     24 C         143.6135  140.4942  164.3324 C.ar    1  UNL1        0.1025
     25 N         143.8826  141.5798  165.3319 N.ar    1  UNL1       -0.2103
     26 C         143.0952  142.4420  169.1096 C.3     1  UNL1        0.2542
     27 O         143.4812  142.6329  167.6728 O.3     1  UNL1       -0.4561
     28 N         139.9165  146.0024  162.3422 N.3     1  UNL1       -0.2926
     29 H         139.6458  146.3350  161.4167 H       1  UNL1        0.1236
     30 C         138.6890  145.4048  162.9637 C.3     1  UNL1        0.1152
     31 C         138.7230  144.0010  163.4911 C.ar    1  UNL1        0.0765
     32 C         139.0572  143.7488  164.9315 C.ar    1  UNL1        0.0193
     33 C         139.0911  142.3450  165.4589 C.ar    1  UNL1        0.0411
     34 C         138.7909  141.1934  164.5459 C.ar    1  UNL1        0.1708
     35 C         138.4567  141.4455  163.1055 C.ar    1  UNL1        0.1682
     36 N         138.4227  142.8494  162.5781 N.ar    1  UNL1       -0.2304
     37 N         138.1564  140.2939  162.1926 N.am    1  UNL1       -0.2639
     38 C         138.1904  138.8901  162.7199 C.2     1  UNL1        0.2718
     39 O         137.8901  137.7384  161.8069 O.2     1  UNL1       -0.2707
     40 C         138.5246  138.6379  164.1604 C.3     1  UNL1        0.2898
     41 O         138.8248  139.7895  165.0733 O.3     1  UNL1       -0.4628
     42 H         137.9370  140.4594  161.2472 H       1  UNL1        0.1565
@<TRIPOS>BOND
     1    26    27    1
     2    27    15    1
     3    15    16   ar
     4    16    17   ar
     5    17    18   ar
     6    18    19   ar
     7    19    20   ar
     8    20    21   ar
     9    21    22    1
    10    21    23   ar
    11    23    12    1
    12    12    13    1
    13    12     9    1
    14     9    10    1
    15     9     1    1
    16     1     2    1
    17     2     3    1
    18     3     4    1
    19     4    28    1
    20    28    30    1
    21    30    31    1
    22    31    32   ar
    23    32    33   ar
    24    33    34   ar
    25    34    35   ar
    26    35    36   ar
    27    35    37    1
    28    37    38   am
    29    38    39    2
    30    38    40    1
    31    40    41    1
    32     4     5    1
    33     5     6    1
    34     4     7    1
    35     7     8    1
    36    23    24   ar
    37    24    25   ar
    38    25    15   ar
    39    24    18   ar
    40     6     1    1
    41     8     1    1
    42    36    31   ar
    43    41    34    1
    44    13    14    1
    45    10    11    1
    46    28    29    1
    47    37    42    1
@<TRIPOS>MOLECULE
*****
 42 47 0 0 0
SMALL
GASTEIGER

@<TRIPOS>ATOM
      1 C         142.0323  138.4991  163.6140 C.3     1  UNL1        0.1200
      2 C         142.9100  138.8649  164.7741 C.3     1  UNL1        0.0311
      3 C         144.0917  139.7650  164.5660 C.3     1  UNL1        0.0194
      4 C         144.3957  140.2995  163.1978 C.3     1  UNL1        0.0700
      5 C         143.5180  139.9337  162.0376 C.3     1  UNL1        0.0194
      6 C         142.3363  139.0335  162.2458 C.3     1  UNL1        0.0311
      7 C         143.7372  139.8096  163.2627 C.3     1  UNL1        0.1563
      8 O         142.6686  138.9956  163.4508 O.3     1  UNL1       -0.3547
      9 C         140.8507  137.5990  163.8220 C.3     1  UNL1        0.1661
     10 O         140.9777  136.1251  163.5741 O.3     1  UNL1       -0.3793
     11 H         140.1285  135.6925  163.7544 H       1  UNL1        0.2106
     12 C         139.5419  138.1727  164.2781 C.3     1  UNL1        0.1654
     13 O         138.8866  137.6500  165.5221 O.3     1  UNL1       -0.3774
     14 H         139.4362  136.9495  165.9070 H       1  UNL1        0.2109
     15 C         139.6594  142.4089  165.7917 C.ar    1  UNL1        0.2250
     16 C         139.0058  143.5052  165.0037 C.ar    1  UNL1        0.0593
     17 C         138.3131  143.1895  163.7113 C.ar    1  UNL1        0.0254
     18 C         138.2739  141.7775  163.2067 C.ar    1  UNL1        0.0991
     19 N         137.5812  141.4618  161.9143 N.ar    1  UNL1       -0.2400
     20 C         137.5420  140.0498  161.4097 C.ar    1  UNL1        0.1282
     21 C         138.1956  138.9533  162.1977 C.ar    1  UNL1        0.1590
     22 F         138.1564  137.5413  161.6931 F       1  UNL1       -0.2027
     23 C         138.8883  139.2690  163.4901 C.ar    1  UNL1        0.0549
     24 C         138.9275  140.6812  163.9947 C.ar    1  UNL1        0.1025
     25 N         139.6202  140.9968  165.2871 N.ar    1  UNL1       -0.2103
     26 C         141.7403  142.2147  167.3351 C.3     1  UNL1        0.2542
     27 O         140.3521  142.7246  167.0841 O.3     1  UNL1       -0.4561
     28 N         145.5774  141.1996  162.9897 N.3     1  UNL1       -0.2926
     29 H         145.7818  141.1910  161.9904 H       1  UNL1        0.1236
     30 C         145.5058  142.6394  163.4045 C.3     1  UNL1        0.1152
     31 C         144.2446  143.4212  163.1851 C.ar    1  UNL1        0.0765
     32 C         143.5065  143.9983  164.3565 C.ar    1  UNL1        0.0193
     33 C         142.2454  144.7802  164.1371 C.ar    1  UNL1        0.0411
     34 C         141.7224  144.9851  162.7462 C.ar    1  UNL1        0.1708
     35 C         142.4605  144.4081  161.5748 C.ar    1  UNL1        0.1682
     36 N         143.7216  143.6262  161.7942 N.ar    1  UNL1       -0.2304
     37 N         141.9375  144.6130  160.1840 N.am    1  UNL1       -0.2639
     38 C         140.6764  145.3949  159.9645 C.2     1  UNL1        0.2718
     39 O         140.1534  145.5998  158.5736 O.2     1  UNL1       -0.2707
     40 C         139.9382  145.9719  161.1359 C.3     1  UNL1        0.2898
     41 O         140.4612  145.7670  162.5268 O.3     1  UNL1       -0.4628
     42 H         142.4219  144.2343  159.4151 H       1  UNL1        0.1565
@<TRIPOS>BOND
     1    26    27    1
     2    27    15    1
     3    15    16   ar
     4    16    17   ar
     5    17    18   ar
     6    18    19   ar
     7    19    20   ar
     8    20    21   ar
     9    21    22    1
    10    21    23   ar
    11    23    12    1
    12    12    13    1
    13    12     9    1
    14     9    10    1
    15     9     1    1
    16     1     2    1
    17     2     3    1
    18     3     4    1
    19     4    28    1
    20    28    30    1
    21    30    31    1
    22    31    32   ar
    23    32    33   ar
    24    33    34   ar
    25    34    35   ar
    26    35    36   ar
    27    35    37    1
    28    37    38   am
    29    38    39    2
    30    38    40    1
    31    40    41    1
    32     4     5    1
    33     5     6    1
    34     4     7    1
    35     7     8    1
    36    23    24   ar
    37    24    25   ar
    38    25    15   ar
    39    24    18   ar
    40     6     1    1
    41     8     1    1
    42    36    31   ar
    43    41    34    1
    44    13    14    1
    45    10    11    1
    46    28    29    1
    47    37    42    1
@<TRIPOS>MOLECULE
*****
 42 47 0 0 0
SMALL
GASTEIGER

@<TRIPOS>ATOM
      1 C         139.0250  143.5529  161.9140 C.3     1  UNL1        0.1200
      2 C         138.5232  142.9036  163.1696 C.3     1  UNL1        0.0311
      3 C         137.9249  141.5292  163.1158 C.3     1  UNL1        0.0194
      4 C         137.8284  140.8039  161.8063 C.3     1  UNL1        0.0700
      5 C         138.3302  141.4532  160.5506 C.3     1  UNL1        0.0194
      6 C         138.9285  142.8277  160.6045 C.3     1  UNL1        0.0311
      7 C         138.1641  141.5555  161.7860 C.3     1  UNL1        0.1563
      8 O         138.7050  142.7983  161.8346 O.3     1  UNL1       -0.3547
      9 C         139.6233  144.9273  161.9678 C.3     1  UNL1        0.1661
     10 O         138.7831  146.1246  161.6349 O.3     1  UNL1       -0.3793
     11 H         139.3190  146.9288  161.7182 H       1  UNL1        0.2106
     12 C         141.0617  145.1046  162.3545 C.3     1  UNL1        0.1654
     13 O         141.4411  146.1284  163.3831 O.3     1  UNL1       -0.3774
     14 H         140.6438  146.5847  163.6945 H       1  UNL1        0.2109
     15 C         144.1454  143.0436  164.9027 C.ar    1  UNL1        0.2250
     16 C         145.2044  142.1971  164.2609 C.ar    1  UNL1        0.0593
     17 C         145.2355  142.0375  162.7698 C.ar    1  UNL1        0.0254
     18 C         144.2076  142.7245  161.9204 C.ar    1  UNL1        0.0991
     19 N         144.2387  142.5649  160.4292 N.ar    1  UNL1       -0.2400
     20 C         143.2108  143.2518  159.5798 C.ar    1  UNL1        0.1282
     21 C         142.1518  144.0984  160.2216 C.ar    1  UNL1        0.1590
     22 F         141.1239  144.7854  159.3722 F       1  UNL1       -0.2027
     23 C         142.1207  144.2580  161.7128 C.ar    1  UNL1        0.0549
     24 C         143.1486  143.5710  162.5622 C.ar    1  UNL1        0.1025
     25 N         143.1175  143.7306  164.0533 N.ar    1  UNL1       -0.2103
     26 C         143.2014  142.3473  167.2209 C.3     1  UNL1        0.2542
     27 O         144.1143  143.2032  166.3939 O.3     1  UNL1       -0.4561
     28 N         137.2301  139.4295  161.7525 N.3     1  UNL1       -0.2926
     29 H         136.7097  139.3690  160.8773 H       1  UNL1        0.1236
     30 C         138.1181  138.2221  161.8126 C.3     1  UNL1        0.1152
     31 C         139.5302  138.3532  162.3011 C.ar    1  UNL1        0.0765
     32 C         140.6615  138.4132  161.3180 C.ar    1  UNL1        0.0193
     33 C         142.0736  138.5443  161.8066 C.ar    1  UNL1        0.0411
     34 C         142.3545  138.6154  163.2783 C.ar    1  UNL1        0.1708
     35 C         141.2232  138.5554  164.2615 C.ar    1  UNL1        0.1682
     36 N         139.8111  138.4243  163.7729 N.ar    1  UNL1       -0.2304
     37 N         141.5041  138.6266  165.7332 N.am    1  UNL1       -0.2639
     38 C         142.9162  138.7577  166.2218 C.2     1  UNL1        0.2718
     39 O         143.1970  138.8288  167.6936 O.2     1  UNL1       -0.2707
     40 C         144.0475  138.8177  165.2386 C.3     1  UNL1        0.2898
     41 O         143.7667  138.7465  163.7669 O.3     1  UNL1       -0.4628
     42 H         140.7616  138.5872  166.3785 H       1  UNL1        0.1565
@<TRIPOS>BOND
     1    26    27    1
     2    27    15    1
     3    15    16   ar
     4    16    17   ar
     5    17    18   ar
     6    18    19   ar
     7    19    20   ar
     8    20    21   ar
     9    21    22    1
    10    21    23   ar
    11    23    12    1
    12    12    13    1
    13    12     9    1
    14     9    10    1
    15     9     1    1
    16     1     2    1
    17     2     3    1
    18     3     4    1
    19     4    28    1
    20    28    30    1
    21    30    31    1
    22    31    32   ar
    23    32    33   ar
    24    33    34   ar
    25    34    35   ar
    26    35    36   ar
    27    35    37    1
    28    37    38   am
    29    38    39    2
    30    38    40    1
    31    40    41    1
    32     4     5    1
    33     5     6    1
    34     4     7    1
    35     7     8    1
    36    23    24   ar
    37    24    25   ar
    38    25    15   ar
    39    24    18   ar
    40     6     1    1
    41     8     1    1
    42    36    31   ar
    43    41    34    1
    44    13    14    1
    45    10    11    1
    46    28    29    1
    47    37    42    1
@<TRIPOS>MOLECULE
*****
 42 47 0 0 0
SMALL
GASTEIGER

@<TRIPOS>ATOM
      1 C         142.5669  139.1520  162.4487 C.3     1  UNL1        0.1200
      2 C         142.6973  140.4862  161.7757 C.3     1  UNL1        0.0311
      3 C         143.5843  141.5411  162.3673 C.3     1  UNL1        0.0194
      4 C         144.3411  141.2620  163.6320 C.3     1  UNL1        0.0700
      5 C         144.2107  139.9278  164.3051 C.3     1  UNL1        0.0194
      6 C         143.3235  138.8728  163.7134 C.3     1  UNL1        0.0311
      7 C         143.8672  140.6526  163.3455 C.3     1  UNL1        0.1563
      8 O         143.0651  139.6987  162.8106 O.3     1  UNL1       -0.3547
      9 C         141.6798  138.0970  161.8571 C.3     1  UNL1        0.1661
     10 O         142.2788  136.9643  161.0773 O.3     1  UNL1       -0.3793
     11 H         141.5725  136.3761  160.7672 H       1  UNL1        0.2106
     12 C         140.1936  138.1747  162.0453 C.3     1  UNL1        0.1654
     13 O         139.2752  137.6015  161.0071 O.3     1  UNL1       -0.3774
     14 H         139.8002  137.2214  160.2854 H       1  UNL1        0.2109
     15 C         138.2162  142.2056  161.7422 C.ar    1  UNL1        0.2250
     16 C         137.6485  142.8566  162.9685 C.ar    1  UNL1        0.0593
     17 C         137.7399  142.1639  164.2959 C.ar    1  UNL1        0.0254
     18 C         138.3991  140.8203  164.3969 C.ar    1  UNL1        0.0991
     19 N         138.4905  140.1277  165.7243 N.ar    1  UNL1       -0.2400
     20 C         139.1496  138.7841  165.8253 C.ar    1  UNL1        0.1282
     21 C         139.7174  138.1331  164.5990 C.ar    1  UNL1        0.1590
     22 F         140.3765  136.7895  164.7000 F       1  UNL1       -0.2027
     23 C         139.6259  138.8257  163.2716 C.ar    1  UNL1        0.0549
     24 C         138.9667  140.1694  163.1706 C.ar    1  UNL1        0.1025
     25 N         138.8753  140.8620  161.8432 N.ar    1  UNL1       -0.2103
     26 C         138.5575  142.1877  159.1667 C.3     1  UNL1        0.2542
     27 O         138.1247  142.8982  160.4148 O.3     1  UNL1       -0.4561
     28 N         145.2282  142.3170  164.2237 N.3     1  UNL1       -0.2926
     29 H         145.6498  142.8192  163.4424 H       1  UNL1        0.1236
     30 C         144.6517  143.3522  165.1434 C.3     1  UNL1        0.1152
     31 C         143.4610  143.0209  165.9933 C.ar    1  UNL1        0.0765
     32 C         142.0799  143.1015  165.4135 C.ar    1  UNL1        0.0193
     33 C         140.8892  142.7702  166.2634 C.ar    1  UNL1        0.0411
     34 C         141.0795  142.3582  167.6931 C.ar    1  UNL1        0.1708
     35 C         142.4605  142.2775  168.2729 C.ar    1  UNL1        0.1682
     36 N         143.6513  142.6089  167.4230 N.ar    1  UNL1       -0.2304
     37 N         142.6509  141.8655  169.7026 N.am    1  UNL1       -0.2639
     38 C         141.4601  141.5341  170.5525 C.2     1  UNL1        0.2718
     39 O         141.6505  141.1221  171.9822 O.2     1  UNL1       -0.2707
     40 C         140.0790  141.6148  169.9727 C.3     1  UNL1        0.2898
     41 O         139.8887  142.0268  168.5430 O.3     1  UNL1       -0.4628
     42 H         143.5573  141.8125  170.0831 H       1  UNL1        0.1565
@<TRIPOS>BOND
     1    26    27    1
     2    27    15    1
     3    15    16   ar
     4    16    17   ar
     5    17    18   ar
     6    18    19   ar
     7    19    20   ar
     8    20    21   ar
     9    21    22    1
    10    21    23   ar
    11    23    12    1
    12    12    13    1
    13    12     9    1
    14     9    10    1
    15     9     1    1
    16     1     2    1
    17     2     3    1
    18     3     4    1
    19     4    28    1
    20    28    30    1
    21    30    31    1
    22    31    32   ar
    23    32    33   ar
    24    33    34   ar
    25    34    35   ar
    26    35    36   ar
    27    35    37    1
    28    37    38   am
    29    38    39    2
    30    38    40    1
    31    40    41    1
    32     4     5    1
    33     5     6    1
    34     4     7    1
    35     7     8    1
    36    23    24   ar
    37    24    25   ar
    38    25    15   ar
    39    24    18   ar
    40     6     1    1
    41     8     1    1
    42    36    31   ar
    43    41    34    1
    44    13    14    1
    45    10    11    1
    46    28    29    1
    47    37    42    1
@<TRIPOS>MOLECULE
*****
 42 47 0 0 0
SMALL
GASTEIGER

@<TRIPOS>ATOM
      1 C         137.8845  141.0656  161.2999 C.3     1  UNL1        0.1200
      2 C         137.4297  141.0382  162.7290 C.3     1  UNL1        0.0311
      3 C         137.6173  142.2457  163.5990 C.3     1  UNL1        0.0194
      4 C         138.2596  143.4805  163.0398 C.3     1  UNL1        0.0700
      5 C         138.7144  143.5078  161.6106 C.3     1  UNL1        0.0194
      6 C         138.5268  142.3003  160.7407 C.3     1  UNL1        0.0311
      7 C         138.1782  142.8435  162.5245 C.3     1  UNL1        0.1563
      8 O         138.0086  141.7517  161.7379 O.3     1  UNL1       -0.3547
      9 C         137.6969  139.8581  160.4299 C.3     1  UNL1        0.1661
     10 O         136.3307  139.5053  159.9210 O.3     1  UNL1       -0.3793
     11 H         136.3851  138.7033  159.3780 H       1  UNL1        0.2106
     12 C         138.8756  139.0034  160.0688 C.3     1  UNL1        0.1654
     13 O         139.1587  138.6853  158.6305 O.3     1  UNL1       -0.3774
     14 H         138.4896  139.1064  158.0685 H       1  UNL1        0.2109
     15 C         143.3450  139.2797  159.6239 C.ar    1  UNL1        0.2250
     16 C         144.2405  138.7433  160.7010 C.ar    1  UNL1        0.0593
     17 C         143.6462  138.1147  161.9265 C.ar    1  UNL1        0.0254
     18 C         142.1564  138.0226  162.0748 C.ar    1  UNL1        0.0991
     19 N         141.5622  137.3941  163.3002 N.ar    1  UNL1       -0.2400
     20 C         140.0724  137.3020  163.4486 C.ar    1  UNL1        0.1282
     21 C         139.1768  137.8384  162.3714 C.ar    1  UNL1        0.1590
     22 F         137.6870  137.7463  162.5197 F       1  UNL1       -0.2027
     23 C         139.7711  138.4670  161.1459 C.ar    1  UNL1        0.0549
     24 C         141.2609  138.5591  160.9977 C.ar    1  UNL1        0.1025
     25 N         141.8552  139.1876  159.7722 N.ar    1  UNL1       -0.2103
     26 C         143.1321  140.0032  157.1377 C.3     1  UNL1        0.2542
     27 O         143.9393  139.9083  158.3984 O.3     1  UNL1       -0.4561
     28 N         138.4472  144.6880  163.9097 N.3     1  UNL1       -0.2926
     29 H         137.5975  144.7853  164.4655 H       1  UNL1        0.1236
     30 C         139.6003  144.7509  164.8670 C.3     1  UNL1        0.1152
     31 C         140.9661  144.3154  164.4256 C.ar    1  UNL1        0.0765
     32 C         141.8220  145.2407  163.6124 C.ar    1  UNL1        0.0193
     33 C         143.1878  144.8052  163.1710 C.ar    1  UNL1        0.0411
     34 C         143.6978  143.4444  163.5428 C.ar    1  UNL1        0.1708
     35 C         142.8420  142.5191  164.3560 C.ar    1  UNL1        0.1682
     36 N         141.4761  142.9546  164.7974 N.ar    1  UNL1       -0.2304
     37 N         143.3519  141.1584  164.7278 N.am    1  UNL1       -0.2639
     38 C         144.7177  140.7229  164.2864 C.2     1  UNL1        0.2718
     39 O         145.2277  139.3621  164.6582 O.2     1  UNL1       -0.2707
     40 C         145.5737  141.6482  163.4732 C.3     1  UNL1        0.2898
     41 O         145.0637  143.0090  163.1014 O.3     1  UNL1       -0.4628
     42 H         142.7902  140.5511  165.2615 H       1  UNL1        0.1565
@<TRIPOS>BOND
     1    26    27    1
     2    27    15    1
     3    15    16   ar
     4    16    17   ar
     5    17    18   ar
     6    18    19   ar
     7    19    20   ar
     8    20    21   ar
     9    21    22    1
    10    21    23   ar
    11    23    12    1
    12    12    13    1
    13    12     9    1
    14     9    10    1
    15     9     1    1
    16     1     2    1
    17     2     3    1
    18     3     4    1
    19     4    28    1
    20    28    30    1
    21    30    31    1
    22    31    32   ar
    23    32    33   ar
    24    33    34   ar
    25    34    35   ar
    26    35    36   ar
    27    35    37    1
    28    37    38   am
    29    38    39    2
    30    38    40    1
    31    40    41    1
    32     4     5    1
    33     5     6    1
    34     4     7    1
    35     7     8    1
    36    23    24   ar
    37    24    25   ar
    38    25    15   ar
    39    24    18   ar
    40     6     1    1
    41     8     1    1
    42    36    31   ar
    43    41    34    1
    44    13    14    1
    45    10    11    1
    46    28    29    1
    47    37    42    1
@<TRIPOS>MOLECULE
*****
 42 47 0 0 0
SMALL
GASTEIGER

@<TRIPOS>ATOM
      1 C         139.4115  143.6808  162.5727 C.3     1  UNL1        0.1200
      2 C         139.0057  142.4521  161.8140 C.3     1  UNL1        0.0311
      3 C         138.4294  141.2756  162.5447 C.3     1  UNL1        0.0194
      4 C         138.2589  141.3279  164.0341 C.3     1  UNL1        0.0700
      5 C         138.6647  142.5566  164.7928 C.3     1  UNL1        0.0194
      6 C         139.2410  143.7331  164.0620 C.3     1  UNL1        0.0311
      7 C         138.5792  141.9973  163.6774 C.3     1  UNL1        0.1563
      8 O         139.1003  143.0611  163.0167 O.3     1  UNL1       -0.3547
      9 C         139.9877  144.8572  161.8421 C.3     1  UNL1        0.1661
     10 O         139.1282  146.0501  161.5452 O.3     1  UNL1       -0.3793
     11 H         139.6512  146.7156  161.0713 H       1  UNL1        0.2106
     12 C         141.4236  144.8408  161.4083 C.3     1  UNL1        0.1654
     13 O         141.8305  145.5229  160.1358 O.3     1  UNL1       -0.3774
     14 H         141.0506  145.9216  159.7190 H       1  UNL1        0.2109
     15 C         143.1354  140.9054  160.0544 C.ar    1  UNL1        0.2250
     16 C         144.1642  140.2069  160.8931 C.ar    1  UNL1        0.0593
     17 C         144.6226  140.8201  162.1830 C.ar    1  UNL1        0.0254
     18 C         144.0520  142.1319  162.6343 C.ar    1  UNL1        0.0991
     19 N         144.5103  142.7451  163.9242 N.ar    1  UNL1       -0.2400
     20 C         143.9397  144.0568  164.3755 C.ar    1  UNL1        0.1282
     21 C         142.9108  144.7554  163.5368 C.ar    1  UNL1        0.1590
     22 F         142.3402  146.0672  163.9881 F       1  UNL1       -0.2027
     23 C         142.4525  144.1422  162.2469 C.ar    1  UNL1        0.0549
     24 C         143.0231  142.8304  161.7956 C.ar    1  UNL1        0.1025
     25 N         142.5648  142.2172  160.5057 N.ar    1  UNL1       -0.2103
     26 C         142.6920  138.8019  158.5956 C.3     1  UNL1        0.2542
     27 O         142.6770  140.2922  158.7645 O.3     1  UNL1       -0.4561
     28 N         137.6827  140.1515  164.7647 N.3     1  UNL1       -0.2926
     29 H         137.0424  139.6888  164.1194 H       1  UNL1        0.1236
     30 C         138.5905  139.0891  165.3100 C.3     1  UNL1        0.1152
     31 C         139.6504  139.4485  166.3087 C.ar    1  UNL1        0.0765
     32 C         141.0922  139.1652  166.0070 C.ar    1  UNL1        0.0193
     33 C         142.1521  139.5245  167.0058 C.ar    1  UNL1        0.0411
     34 C         141.7702  140.1672  168.3062 C.ar    1  UNL1        0.1708
     35 C         140.3285  140.4506  168.6079 C.ar    1  UNL1        0.1682
     36 N         139.2685  140.0912  167.6092 N.ar    1  UNL1       -0.2304
     37 N         139.9466  141.0932  169.9084 N.am    1  UNL1       -0.2639
     38 C         141.0065  141.4526  170.9071 C.2     1  UNL1        0.2718
     39 O         140.6246  142.0953  172.2075 O.2     1  UNL1       -0.2707
     40 C         142.4483  141.1693  170.6054 C.3     1  UNL1        0.2898
     41 O         142.8302  140.5266  169.3049 O.3     1  UNL1       -0.4628
     42 H         139.0003  141.2792  170.1064 H       1  UNL1        0.1565
@<TRIPOS>BOND
     1    26    27    1
     2    27    15    1
     3    15    16   ar
     4    16    17   ar
     5    17    18   ar
     6    18    19   ar
     7    19    20   ar
     8    20    21   ar
     9    21    22    1
    10    21    23   ar
    11    23    12    1
    12    12    13    1
    13    12     9    1
    14     9    10    1
    15     9     1    1
    16     1     2    1
    17     2     3    1
    18     3     4    1
    19     4    28    1
    20    28    30    1
    21    30    31    1
    22    31    32   ar
    23    32    33   ar
    24    33    34   ar
    25    34    35   ar
    26    35    36   ar
    27    35    37    1
    28    37    38   am
    29    38    39    2
    30    38    40    1
    31    40    41    1
    32     4     5    1
    33     5     6    1
    34     4     7    1
    35     7     8    1
    36    23    24   ar
    37    24    25   ar
    38    25    15   ar
    39    24    18   ar
    40     6     1    1
    41     8     1    1
    42    36    31   ar
    43    41    34    1
    44    13    14    1
    45    10    11    1
    46    28    29    1
    47    37    42    1
