@<TRIPOS>MOLECULE
*****
 40 44 0 0 0
SMALL
GASTEIGER

@<TRIPOS>ATOM
      1 C         143.7098  139.9715  158.9879 C.3     1  UNL1        0.0747
      2 C         143.8738  139.7273  160.4588 C.3     1  UNL1        0.0369
      3 C         143.9349  140.8862  161.4092 C.3     1  UNL1        0.0741
      4 N         143.8320  142.2893  160.8887 N.3     1  UNL1       -0.2689
      5 C         143.6680  142.5334  159.4178 C.3     1  UNL1        0.0741
      6 C         143.6069  141.3745  158.4674 C.3     1  UNL1        0.0369
      7 O         141.2126  138.3203  158.7944 O.2     1  UNL1       -0.2668
      8 C         142.4001  137.9870  157.9408 C.2     1  UNL1        0.2806
      9 N         143.6487  138.8126  158.0375 N.am    1  UNL1       -0.2999
     10 H         144.4281  138.5939  157.4773 H       1  UNL1        0.1498
     11 C         142.3390  136.8281  156.9903 C.ar    1  UNL1        0.2014
     12 C         141.3825  136.8551  155.8352 C.ar    1  UNL1        0.0843
     13 C         141.3214  135.6963  154.8848 C.ar    1  UNL1        0.2018
     14 O         140.3649  135.7233  153.7296 O.2     1  UNL1       -0.2864
     15 C         142.2169  134.5104  155.0895 C.ar    1  UNL1        0.0737
     16 C         142.1558  133.3515  154.1390 C.ar    1  UNL1        0.0085
     17 C         143.0512  132.1657  154.3438 C.ar    1  UNL1        0.0299
     18 C         144.0077  132.1387  155.4989 C.ar    1  UNL1        0.1432
     19 F         144.9032  130.9528  155.7036 F       1  UNL1       -0.2041
     20 C         144.0688  133.2975  156.4493 C.ar    1  UNL1        0.0672
     21 C         143.1734  134.4833  156.2446 C.ar    1  UNL1        0.1508
     22 O         143.2345  135.6423  157.1951 O.2     1  UNL1       -0.4486
     23 C         143.8931  143.4481  161.8391 C.3     1  UNL1        0.0992
     24 C         142.6744  143.8435  162.6191 C.ar    1  UNL1       -0.0037
     25 C         142.4685  143.3148  164.0076 C.ar    1  UNL1        0.0003
     26 C         141.2497  143.7101  164.7876 C.ar    1  UNL1        0.0390
     27 C         140.2369  144.6342  164.1791 C.ar    1  UNL1        0.1658
     28 C         140.4429  145.1629  162.7906 C.ar    1  UNL1        0.1735
     29 F         139.4300  146.0870  162.1820 F       1  UNL1       -0.2010
     30 C         141.6616  144.7675  162.0106 C.ar    1  UNL1        0.0299
     31 O         139.0182  145.0295  164.9592 O.3     1  UNL1       -0.4731
     32 C         137.7721  144.1988  164.8755 C.3     1  UNL1        0.2070
     33 C         137.7306  142.9970  163.9788 C.3     1  UNL1        0.0646
     34 C         138.0875  141.6445  164.5205 C.3     1  UNL1        0.0761
     35 N         138.1458  140.4602  163.6017 N.3     1  UNL1       -0.2683
     36 C         138.6829  139.1509  164.0990 C.3     1  UNL1        0.1046
     37 C         138.7412  137.9666  163.1803 C.3     1  UNL1        0.1595
     38 O         138.2625  138.0916  161.7643 O.3     1  UNL1       -0.3508
     39 C         137.7253  139.4009  161.2669 C.3     1  UNL1        0.1595
     40 C         137.6670  140.5852  162.1857 C.3     1  UNL1        0.1046
@<TRIPOS>BOND
     1     7     8    2
     2     8     9   am
     3     9     1    1
     4     1     2    1
     5     2     3    1
     6     3     4    1
     7     4    23    1
     8    23    24    1
     9    24    25   ar
    10    25    26   ar
    11    26    27   ar
    12    27    31    1
    13    31    32    1
    14    32    33    1
    15    33    34    1
    16    34    35    1
    17    35    36    1
    18    36    37    1
    19    37    38    1
    20    38    39    1
    21    39    40    1
    22    27    28   ar
    23    28    29    1
    24    28    30   ar
    25     4     5    1
    26     5     6    1
    27     8    11    1
    28    11    12   ar
    29    12    13   ar
    30    13    14    2
    31    13    15   ar
    32    15    16   ar
    33    16    17   ar
    34    17    18   ar
    35    18    19    1
    36    18    20   ar
    37    20    21   ar
    38    21    22   ar
    39     6     1    1
    40    22    11   ar
    41    30    24   ar
    42    21    15   ar
    43    40    35    1
    44     9    10    1
@<TRIPOS>MOLECULE
*****
 40 44 0 0 0
SMALL
GASTEIGER

@<TRIPOS>ATOM
      1 C         143.5919  139.7899  159.9901 C.3     1  UNL1        0.0747
      2 C         143.1285  141.1856  159.6946 C.3     1  UNL1        0.0369
      3 C         143.1853  142.2367  160.7631 C.3     1  UNL1        0.0741
      4 N         143.7055  141.8922  162.1273 N.3     1  UNL1       -0.2689
      5 C         144.1689  140.4965  162.4228 C.3     1  UNL1        0.0741
      6 C         144.1121  139.4454  161.3541 C.3     1  UNL1        0.0369
      7 O         141.0011  138.4033  159.3862 O.2     1  UNL1       -0.2668
      8 C         142.2397  138.0454  158.6196 C.2     1  UNL1        0.2806
      9 N         143.5351  138.7387  158.9216 N.am    1  UNL1       -0.2999
     10 H         144.3481  138.5038  158.4185 H       1  UNL1        0.1498
     11 C         142.1830  136.9942  157.5510 C.ar    1  UNL1        0.2014
     12 C         141.2111  137.1298  156.4165 C.ar    1  UNL1        0.0843
     13 C         141.1544  136.0787  155.3479 C.ar    1  UNL1        0.2018
     14 O         140.1825  136.2142  154.2134 O.2     1  UNL1       -0.2864
     15 C         142.0694  134.8919  155.4139 C.ar    1  UNL1        0.0737
     16 C         142.0127  133.8408  154.3453 C.ar    1  UNL1        0.0085
     17 C         142.9277  132.6541  154.4113 C.ar    1  UNL1        0.0299
     18 C         143.8995  132.5185  155.5458 C.ar    1  UNL1        0.1432
     19 F         144.8146  131.3317  155.6118 F       1  UNL1       -0.2041
     20 C         143.9563  133.5696  156.6144 C.ar    1  UNL1        0.0672
     21 C         143.0413  134.7563  156.5484 C.ar    1  UNL1        0.1508
     22 O         143.0980  135.8075  157.6170 O.2     1  UNL1       -0.4486
     23 C         143.7623  142.9434  163.1958 C.3     1  UNL1        0.0992
     24 C         142.9561  142.7819  164.4504 C.ar    1  UNL1       -0.0037
     25 C         143.6030  142.2484  165.6941 C.ar    1  UNL1        0.0003
     26 C         142.7968  142.0869  166.9487 C.ar    1  UNL1        0.0390
     27 C         141.3437  142.4589  166.9595 C.ar    1  UNL1        0.1658
     28 C         140.6968  142.9923  165.7158 C.ar    1  UNL1        0.1735
     29 F         139.2436  143.3643  165.7266 F       1  UNL1       -0.2010
     30 C         141.5030  143.1538  164.4612 C.ar    1  UNL1        0.0299
     31 O         140.5375  142.2973  168.2141 O.3     1  UNL1       -0.4731
     32 C         140.0311  140.9424  168.6110 C.3     1  UNL1        0.2070
     33 C         139.9804  139.8350  167.6004 C.3     1  UNL1        0.0646
     34 C         138.6743  139.4571  166.9669 C.3     1  UNL1        0.0761
     35 N         138.5926  139.2489  165.4836 N.3     1  UNL1       -0.2683
     36 C         138.9570  137.9197  164.8917 C.3     1  UNL1        0.1046
     37 C         138.8753  137.7116  163.4084 C.3     1  UNL1        0.1595
     38 O         138.4293  138.8325  162.5172 O.3     1  UNL1       -0.3508
     39 C         138.0648  140.1618  163.1091 C.3     1  UNL1        0.1595
     40 C         138.1465  140.3700  164.5924 C.3     1  UNL1        0.1046
@<TRIPOS>BOND
     1     7     8    2
     2     8     9   am
     3     9     1    1
     4     1     2    1
     5     2     3    1
     6     3     4    1
     7     4    23    1
     8    23    24    1
     9    24    25   ar
    10    25    26   ar
    11    26    27   ar
    12    27    31    1
    13    31    32    1
    14    32    33    1
    15    33    34    1
    16    34    35    1
    17    35    36    1
    18    36    37    1
    19    37    38    1
    20    38    39    1
    21    39    40    1
    22    27    28   ar
    23    28    29    1
    24    28    30   ar
    25     4     5    1
    26     5     6    1
    27     8    11    1
    28    11    12   ar
    29    12    13   ar
    30    13    14    2
    31    13    15   ar
    32    15    16   ar
    33    16    17   ar
    34    17    18   ar
    35    18    19    1
    36    18    20   ar
    37    20    21   ar
    38    21    22   ar
    39     6     1    1
    40    22    11   ar
    41    30    24   ar
    42    21    15   ar
    43    40    35    1
    44     9    10    1
@<TRIPOS>MOLECULE
*****
 40 44 0 0 0
SMALL
GASTEIGER

@<TRIPOS>ATOM
      1 C         142.6988  138.3114  157.6740 C.3     1  UNL1        0.0747
      2 C         143.0177  138.4490  159.1332 C.3     1  UNL1        0.0369
      3 C         143.1773  139.8111  159.7408 C.3     1  UNL1        0.0741
      4 N         143.0182  141.0356  158.8892 N.3     1  UNL1       -0.2689
      5 C         142.6993  140.8980  157.4299 C.3     1  UNL1        0.0741
      6 C         142.5396  139.5359  156.8223 C.3     1  UNL1        0.0369
      7 O         144.7625  137.2708  155.7614 O.2     1  UNL1       -0.2668
      8 C         143.5710  136.4290  156.1101 C.2     1  UNL1        0.2806
      9 N         142.5391  136.9494  157.0663 N.am    1  UNL1       -0.2999
     10 H         141.7570  136.3969  157.2952 H       1  UNL1        0.1498
     11 C         143.4112  135.0669  155.5024 C.ar    1  UNL1        0.2014
     12 C         142.5029  134.8729  154.3246 C.ar    1  UNL1        0.0843
     13 C         142.3432  133.5109  153.7169 C.ar    1  UNL1        0.2018
     14 O         141.4348  133.3169  152.5391 O.2     1  UNL1       -0.2864
     15 C         143.0917  132.3427  154.2872 C.ar    1  UNL1        0.0737
     16 C         142.9320  130.9807  153.6796 C.ar    1  UNL1        0.0085
     17 C         143.6805  129.8126  154.2498 C.ar    1  UNL1        0.0299
     18 C         144.5888  130.0065  155.4277 C.ar    1  UNL1        0.1432
     19 F         145.3374  128.8384  155.9979 F       1  UNL1       -0.2041
     20 C         144.7486  131.3686  156.0353 C.ar    1  UNL1        0.0672
     21 C         144.0000  132.5367  155.4650 C.ar    1  UNL1        0.1508
     22 O         144.1598  133.8988  156.0727 O.2     1  UNL1       -0.4486
     23 C         143.1779  142.3977  159.4968 C.3     1  UNL1        0.0992
     24 C         142.0181  143.0514  160.1878 C.ar    1  UNL1       -0.0037
     25 C         140.6183  142.7830  159.7204 C.ar    1  UNL1        0.0003
     26 C         139.4585  143.4366  160.4114 C.ar    1  UNL1        0.0390
     27 C         139.6984  144.3587  161.5699 C.ar    1  UNL1        0.1658
     28 C         141.0982  144.6271  162.0374 C.ar    1  UNL1        0.1735
     29 F         141.3382  145.5492  163.1960 F       1  UNL1       -0.2010
     30 C         142.2580  143.9734  161.3463 C.ar    1  UNL1        0.0299
     31 O         138.5386  145.0124  162.2610 O.3     1  UNL1       -0.4731
     32 C         137.9168  144.3616  163.4609 C.3     1  UNL1        0.2070
     33 C         138.2029  142.9210  163.7654 C.3     1  UNL1        0.0646
     34 C         137.3817  141.8415  163.1245 C.3     1  UNL1        0.0761
     35 N         137.8418  140.4150  163.1822 N.3     1  UNL1       -0.2683
     36 C         137.7955  139.5616  161.9495 C.3     1  UNL1        0.1046
     37 C         138.2556  138.1351  162.0072 C.3     1  UNL1        0.1595
     38 O         138.7621  137.5620  163.2975 O.3     1  UNL1       -0.3508
     39 C         138.8084  138.4154  164.5303 C.3     1  UNL1        0.1595
     40 C         138.3483  139.8419  164.4726 C.3     1  UNL1        0.1046
@<TRIPOS>BOND
     1     7     8    2
     2     8     9   am
     3     9     1    1
     4     1     2    1
     5     2     3    1
     6     3     4    1
     7     4    23    1
     8    23    24    1
     9    24    25   ar
    10    25    26   ar
    11    26    27   ar
    12    27    31    1
    13    31    32    1
    14    32    33    1
    15    33    34    1
    16    34    35    1
    17    35    36    1
    18    36    37    1
    19    37    38    1
    20    38    39    1
    21    39    40    1
    22    27    28   ar
    23    28    29    1
    24    28    30   ar
    25     4     5    1
    26     5     6    1
    27     8    11    1
    28    11    12   ar
    29    12    13   ar
    30    13    14    2
    31    13    15   ar
    32    15    16   ar
    33    16    17   ar
    34    17    18   ar
    35    18    19    1
    36    18    20   ar
    37    20    21   ar
    38    21    22   ar
    39     6     1    1
    40    22    11   ar
    41    30    24   ar
    42    21    15   ar
    43    40    35    1
    44     9    10    1
@<TRIPOS>MOLECULE
*****
 40 44 0 0 0
SMALL
GASTEIGER

@<TRIPOS>ATOM
      1 C         143.7247  138.6420  160.4864 C.3     1  UNL1        0.0747
      2 C         143.8512  140.0936  160.1304 C.3     1  UNL1        0.0369
      3 C         143.9448  141.1263  161.2142 C.3     1  UNL1        0.0741
      4 N         143.9118  140.7073  162.6542 N.3     1  UNL1       -0.2689
      5 C         143.7853  139.2557  163.0103 C.3     1  UNL1        0.0741
      6 C         143.6918  138.2230  161.9263 C.3     1  UNL1        0.0369
      7 O         141.3673  138.6239  158.6311 O.2     1  UNL1       -0.2668
      8 C         142.4525  137.6003  158.4749 C.2     1  UNL1        0.2806
      9 N         143.6312  137.6093  159.4026 N.am    1  UNL1       -0.2999
     10 H         144.3435  136.9374  159.3000 H       1  UNL1        0.1498
     11 C         142.3590  136.5675  157.3910 C.ar    1  UNL1        0.2014
     12 C         141.3839  136.7477  156.2655 C.ar    1  UNL1        0.0843
     13 C         141.2904  135.7150  155.1817 C.ar    1  UNL1        0.2018
     14 O         140.3153  135.8952  154.0562 O.2     1  UNL1       -0.2864
     15 C         142.1720  134.5021  155.2233 C.ar    1  UNL1        0.0737
     16 C         142.0785  133.4694  154.1394 C.ar    1  UNL1        0.0085
     17 C         142.9600  132.2566  154.1810 C.ar    1  UNL1        0.0299
     18 C         143.9351  132.0764  155.3065 C.ar    1  UNL1        0.1432
     19 F         144.8167  130.8634  155.3481 F       1  UNL1       -0.2041
     20 C         144.0286  133.1090  156.3904 C.ar    1  UNL1        0.0672
     21 C         143.1471  134.3219  156.3488 C.ar    1  UNL1        0.1508
     22 O         143.2406  135.3547  157.4327 O.2     1  UNL1       -0.4486
     23 C         144.0053  141.7400  163.7381 C.3     1  UNL1        0.0992
     24 C         142.7807  142.4953  164.1621 C.ar    1  UNL1       -0.0037
     25 C         142.5310  143.8767  163.6336 C.ar    1  UNL1        0.0003
     26 C         141.3063  144.6319  164.0577 C.ar    1  UNL1        0.0390
     27 C         140.3314  144.0058  165.0102 C.ar    1  UNL1        0.1658
     28 C         140.5811  142.6244  165.5387 C.ar    1  UNL1        0.1735
     29 F         139.6061  141.9982  166.4913 F       1  UNL1       -0.2010
     30 C         141.8057  141.8691  165.1147 C.ar    1  UNL1        0.0299
     31 O         139.1067  144.7610  165.4343 O.3     1  UNL1       -0.4731
     32 C         137.7773  144.4409  164.8179 C.3     1  UNL1        0.2070
     33 C         137.7137  143.7880  163.4690 C.3     1  UNL1        0.0646
     34 C         137.2755  142.3585  163.3476 C.3     1  UNL1        0.0761
     35 N         138.2978  141.2705  163.2019 N.3     1  UNL1       -0.2683
     36 C         139.3614  141.3768  162.1496 C.3     1  UNL1        0.1046
     37 C         140.3837  140.2888  162.0039 C.3     1  UNL1        0.1595
     38 O         140.3423  139.0945  162.9105 O.3     1  UNL1       -0.3508
     39 C         139.2787  138.9882  163.9628 C.3     1  UNL1        0.1595
     40 C         138.2564  140.0762  164.1085 C.3     1  UNL1        0.1046
@<TRIPOS>BOND
     1     7     8    2
     2     8     9   am
     3     9     1    1
     4     1     2    1
     5     2     3    1
     6     3     4    1
     7     4    23    1
     8    23    24    1
     9    24    25   ar
    10    25    26   ar
    11    26    27   ar
    12    27    31    1
    13    31    32    1
    14    32    33    1
    15    33    34    1
    16    34    35    1
    17    35    36    1
    18    36    37    1
    19    37    38    1
    20    38    39    1
    21    39    40    1
    22    27    28   ar
    23    28    29    1
    24    28    30   ar
    25     4     5    1
    26     5     6    1
    27     8    11    1
    28    11    12   ar
    29    12    13   ar
    30    13    14    2
    31    13    15   ar
    32    15    16   ar
    33    16    17   ar
    34    17    18   ar
    35    18    19    1
    36    18    20   ar
    37    20    21   ar
    38    21    22   ar
    39     6     1    1
    40    22    11   ar
    41    30    24   ar
    42    21    15   ar
    43    40    35    1
    44     9    10    1
@<TRIPOS>MOLECULE
*****
 40 44 0 0 0
SMALL
GASTEIGER

@<TRIPOS>ATOM
      1 C         139.5719  141.6765  158.0640 C.3     1  UNL1        0.0747
      2 C         140.7987  141.1122  158.7171 C.3     1  UNL1        0.0369
      3 C         140.6750  139.9814  159.6949 C.3     1  UNL1        0.0741
      4 N         139.3246  139.4149  160.0196 N.3     1  UNL1       -0.2689
      5 C         138.0978  139.9792  159.3665 C.3     1  UNL1        0.0741
      6 C         138.2214  141.1100  158.3887 C.3     1  UNL1        0.0369
      7 O         139.7040  144.5061  159.0520 O.2     1  UNL1       -0.2668
      8 C         139.7616  144.2221  157.5803 C.2     1  UNL1        0.2806
      9 N         139.6955  142.8073  157.0863 N.am    1  UNL1       -0.2999
     10 H         139.7332  142.6209  156.1204 H       1  UNL1        0.1498
     11 C         139.8852  145.3529  156.6025 C.ar    1  UNL1        0.2014
     12 C         140.6934  145.1773  155.3511 C.ar    1  UNL1        0.0843
     13 C         140.8171  146.3080  154.3733 C.ar    1  UNL1        0.2018
     14 O         141.6253  146.1325  153.1219 O.2     1  UNL1       -0.2864
     15 C         140.1325  147.6144  154.6469 C.ar    1  UNL1        0.0737
     16 C         140.2561  148.7451  153.6691 C.ar    1  UNL1        0.0085
     17 C         139.5715  150.0514  153.9426 C.ar    1  UNL1        0.0299
     18 C         138.7633  150.2270  155.1940 C.ar    1  UNL1        0.1432
     19 F         138.0787  151.5334  155.4675 F       1  UNL1       -0.2041
     20 C         138.6396  149.0963  156.1718 C.ar    1  UNL1        0.0672
     21 C         139.3242  147.7900  155.8982 C.ar    1  UNL1        0.1508
     22 O         139.2006  146.6592  156.8760 O.2     1  UNL1       -0.4486
     23 C         139.2010  138.2841  160.9973 C.3     1  UNL1        0.0992
     24 C         138.9558  138.5712  162.4490 C.ar    1  UNL1       -0.0037
     25 C         139.1565  137.4921  163.4713 C.ar    1  UNL1        0.0003
     26 C         138.9114  137.7792  164.9230 C.ar    1  UNL1        0.0390
     27 C         138.4656  139.1455  165.3524 C.ar    1  UNL1        0.1658
     28 C         138.2649  140.2247  164.3301 C.ar    1  UNL1        0.1735
     29 F         137.8191  141.5910  164.7596 F       1  UNL1       -0.2010
     30 C         138.5100  139.9375  162.8784 C.ar    1  UNL1        0.0299
     31 O         138.2205  139.4326  166.8041 O.3     1  UNL1       -0.4731
     32 C         139.3579  139.8496  167.6886 C.3     1  UNL1        0.2070
     33 C         140.0999  141.1223  167.4063 C.3     1  UNL1        0.0646
     34 C         141.5262  141.0722  166.9444 C.3     1  UNL1        0.0761
     35 N         141.8516  140.5730  165.5678 N.3     1  UNL1       -0.2683
     36 C         142.2952  139.1538  165.3700 C.3     1  UNL1        0.1046
     37 C         142.6205  138.6547  163.9935 C.3     1  UNL1        0.1595
     38 O         142.5023  139.5746  162.8147 O.3     1  UNL1       -0.3508
     39 C         142.0587  140.9939  163.0124 C.3     1  UNL1        0.1595
     40 C         141.7333  141.4931  164.3890 C.3     1  UNL1        0.1046
@<TRIPOS>BOND
     1     7     8    2
     2     8     9   am
     3     9     1    1
     4     1     2    1
     5     2     3    1
     6     3     4    1
     7     4    23    1
     8    23    24    1
     9    24    25   ar
    10    25    26   ar
    11    26    27   ar
    12    27    31    1
    13    31    32    1
    14    32    33    1
    15    33    34    1
    16    34    35    1
    17    35    36    1
    18    36    37    1
    19    37    38    1
    20    38    39    1
    21    39    40    1
    22    27    28   ar
    23    28    29    1
    24    28    30   ar
    25     4     5    1
    26     5     6    1
    27     8    11    1
    28    11    12   ar
    29    12    13   ar
    30    13    14    2
    31    13    15   ar
    32    15    16   ar
    33    16    17   ar
    34    17    18   ar
    35    18    19    1
    36    18    20   ar
    37    20    21   ar
    38    21    22   ar
    39     6     1    1
    40    22    11   ar
    41    30    24   ar
    42    21    15   ar
    43    40    35    1
    44     9    10    1
@<TRIPOS>MOLECULE
*****
 40 44 0 0 0
SMALL
GASTEIGER

@<TRIPOS>ATOM
      1 C         139.4236  141.9414  157.5867 C.3     1  UNL1        0.0747
      2 C         140.6538  141.3206  158.1794 C.3     1  UNL1        0.0369
      3 C         140.5281  140.1682  159.1313 C.3     1  UNL1        0.0741
      4 N         139.1722  139.6365  159.4905 N.3     1  UNL1       -0.2689
      5 C         137.9420  140.2574  158.8978 C.3     1  UNL1        0.0741
      6 C         138.0678  141.4098  157.9458 C.3     1  UNL1        0.0369
      7 O         139.6693  144.7388  158.6421 O.2     1  UNL1       -0.2668
      8 C         139.6722  144.4925  157.1625 C.2     1  UNL1        0.2806
      9 N         139.5493  143.0938  156.6348 N.am    1  UNL1       -0.2999
     10 H         139.5512  142.9321  155.6636 H       1  UNL1        0.1498
     11 C         139.7979  145.6449  156.2105 C.ar    1  UNL1        0.2014
     12 C         140.5611  145.4799  154.9298 C.ar    1  UNL1        0.0843
     13 C         140.6869  146.6322  153.9778 C.ar    1  UNL1        0.2018
     14 O         141.4501  146.4672  152.6971 O.2     1  UNL1       -0.2864
     15 C         140.0493  147.9497  154.3065 C.ar    1  UNL1        0.0737
     16 C         140.1750  149.1020  153.3546 C.ar    1  UNL1        0.0085
     17 C         139.5375  150.4193  153.6833 C.ar    1  UNL1        0.0299
     18 C         138.7743  150.5844  154.9640 C.ar    1  UNL1        0.1432
     19 F         138.1367  151.9018  155.2928 F       1  UNL1       -0.2041
     20 C         138.6486  149.4320  155.9160 C.ar    1  UNL1        0.0672
     21 C         139.2861  148.1147  155.5872 C.ar    1  UNL1        0.1508
     22 O         139.1604  146.9623  156.5392 O.2     1  UNL1       -0.4486
     23 C         139.0465  138.4842  160.4424 C.3     1  UNL1        0.0992
     24 C         138.8807  138.7393  161.9112 C.ar    1  UNL1       -0.0037
     25 C         139.2755  137.6869  162.9045 C.ar    1  UNL1        0.0003
     26 C         139.1097  137.9420  164.3733 C.ar    1  UNL1        0.0390
     27 C         138.5492  139.2495  164.8489 C.ar    1  UNL1        0.1658
     28 C         138.1545  140.3019  163.8556 C.ar    1  UNL1        0.1735
     29 F         137.5940  141.6095  164.3312 F       1  UNL1       -0.2010
     30 C         138.3202  140.0468  162.3868 C.ar    1  UNL1        0.0299
     31 O         138.3835  139.5046  166.3177 O.3     1  UNL1       -0.4731
     32 C         139.5676  139.9021  167.1482 C.3     1  UNL1        0.2070
     33 C         140.5858  140.8547  166.5951 C.3     1  UNL1        0.0646
     34 C         141.5585  141.5305  167.5156 C.3     1  UNL1        0.0761
     35 N         141.1978  141.7546  168.9543 N.3     1  UNL1       -0.2683
     36 C         140.2391  142.8466  169.3259 C.3     1  UNL1        0.1046
     37 C         139.8784  143.0707  170.7645 C.3     1  UNL1        0.1595
     38 O         140.4766  142.2027  171.8316 O.3     1  UNL1       -0.3508
     39 C         141.4354  141.1106  171.4601 C.3     1  UNL1        0.1595
     40 C         141.7961  140.8865  170.0214 C.3     1  UNL1        0.1046
@<TRIPOS>BOND
     1     7     8    2
     2     8     9   am
     3     9     1    1
     4     1     2    1
     5     2     3    1
     6     3     4    1
     7     4    23    1
     8    23    24    1
     9    24    25   ar
    10    25    26   ar
    11    26    27   ar
    12    27    31    1
    13    31    32    1
    14    32    33    1
    15    33    34    1
    16    34    35    1
    17    35    36    1
    18    36    37    1
    19    37    38    1
    20    38    39    1
    21    39    40    1
    22    27    28   ar
    23    28    29    1
    24    28    30   ar
    25     4     5    1
    26     5     6    1
    27     8    11    1
    28    11    12   ar
    29    12    13   ar
    30    13    14    2
    31    13    15   ar
    32    15    16   ar
    33    16    17   ar
    34    17    18   ar
    35    18    19    1
    36    18    20   ar
    37    20    21   ar
    38    21    22   ar
    39     6     1    1
    40    22    11   ar
    41    30    24   ar
    42    21    15   ar
    43    40    35    1
    44     9    10    1
@<TRIPOS>MOLECULE
*****
 40 44 0 0 0
SMALL
GASTEIGER

@<TRIPOS>ATOM
      1 C         143.0661  139.7261  158.3983 C.3     1  UNL1        0.0747
      2 C         143.9280  140.8314  157.8642 C.3     1  UNL1        0.0369
      3 C         143.6661  142.2508  158.2726 C.3     1  UNL1        0.0741
      4 N         142.5421  142.5648  159.2151 N.3     1  UNL1       -0.2689
      5 C         141.6802  141.4594  159.7492 C.3     1  UNL1        0.0741
      6 C         141.9422  140.0400  159.3408 C.3     1  UNL1        0.0369
      7 O         141.5365  138.5141  156.1199 O.2     1  UNL1       -0.2668
      8 C         142.5633  137.7007  156.8507 C.2     1  UNL1        0.2806
      9 N         143.3281  138.3067  157.9899 N.am    1  UNL1       -0.2999
     10 H         144.0020  137.7729  158.4696 H       1  UNL1        0.1498
     11 C         142.8253  136.2813  156.4423 C.ar    1  UNL1        0.2014
     12 C         142.3945  135.7985  155.0891 C.ar    1  UNL1        0.0843
     13 C         142.6564  134.3792  154.6807 C.ar    1  UNL1        0.2018
     14 O         142.2256  133.8965  153.3274 O.2     1  UNL1       -0.2864
     15 C         143.3493  133.4426  155.6256 C.ar    1  UNL1        0.0737
     16 C         143.6112  132.0232  155.2172 C.ar    1  UNL1        0.0085
     17 C         144.3040  131.0867  156.1621 C.ar    1  UNL1        0.0299
     18 C         144.7348  131.5694  157.5154 C.ar    1  UNL1        0.1432
     19 F         145.4277  130.6328  158.4603 F       1  UNL1       -0.2041
     20 C         144.4729  132.9888  157.9237 C.ar    1  UNL1        0.0672
     21 C         143.7801  133.9253  156.9789 C.ar    1  UNL1        0.1508
     22 O         143.5181  135.3448  157.3872 O.2     1  UNL1       -0.4486
     23 C         142.2802  143.9841  159.6235 C.3     1  UNL1        0.0992
     24 C         141.4887  144.2736  160.8643 C.ar    1  UNL1       -0.0037
     25 C         140.1085  144.8509  160.7559 C.ar    1  UNL1        0.0003
     26 C         139.3170  145.1404  161.9968 C.ar    1  UNL1        0.0390
     27 C         139.9057  144.8527  163.3461 C.ar    1  UNL1        0.1658
     28 C         141.2859  144.2755  163.4545 C.ar    1  UNL1        0.1735
     29 F         141.8747  143.9877  164.8038 F       1  UNL1       -0.2010
     30 C         142.0774  143.9860  162.2136 C.ar    1  UNL1        0.0299
     31 O         139.1142  145.1422  164.5869 O.3     1  UNL1       -0.4731
     32 C         138.1168  144.1416  165.0908 C.3     1  UNL1        0.2070
     33 C         137.8385  142.8970  164.3011 C.3     1  UNL1        0.0646
     34 C         138.4416  141.5902  164.7238 C.3     1  UNL1        0.0761
     35 N         138.3766  140.4034  163.8087 N.3     1  UNL1       -0.2683
     36 C         138.9240  139.0805  164.2562 C.3     1  UNL1        0.1046
     37 C         138.8590  137.8937  163.3411 C.3     1  UNL1        0.1595
     38 O         138.2465  138.0298  161.9786 O.3     1  UNL1       -0.3508
     39 C         137.6990  139.3528  161.5312 C.3     1  UNL1        0.1595
     40 C         137.7641  140.5395  162.4462 C.3     1  UNL1        0.1046
@<TRIPOS>BOND
     1     7     8    2
     2     8     9   am
     3     9     1    1
     4     1     2    1
     5     2     3    1
     6     3     4    1
     7     4    23    1
     8    23    24    1
     9    24    25   ar
    10    25    26   ar
    11    26    27   ar
    12    27    31    1
    13    31    32    1
    14    32    33    1
    15    33    34    1
    16    34    35    1
    17    35    36    1
    18    36    37    1
    19    37    38    1
    20    38    39    1
    21    39    40    1
    22    27    28   ar
    23    28    29    1
    24    28    30   ar
    25     4     5    1
    26     5     6    1
    27     8    11    1
    28    11    12   ar
    29    12    13   ar
    30    13    14    2
    31    13    15   ar
    32    15    16   ar
    33    16    17   ar
    34    17    18   ar
    35    18    19    1
    36    18    20   ar
    37    20    21   ar
    38    21    22   ar
    39     6     1    1
    40    22    11   ar
    41    30    24   ar
    42    21    15   ar
    43    40    35    1
    44     9    10    1
@<TRIPOS>MOLECULE
*****
 40 44 0 0 0
SMALL
GASTEIGER

@<TRIPOS>ATOM
      1 C         142.7163  138.5983  159.3844 C.3     1  UNL1        0.0747
      2 C         141.7549  139.7324  159.1856 C.3     1  UNL1        0.0369
      3 C         141.8829  140.9777  160.0119 C.3     1  UNL1        0.0741
      4 N         142.9722  141.0888  161.0372 N.3     1  UNL1       -0.2689
      5 C         143.9336  139.9547  161.2360 C.3     1  UNL1        0.0741
      6 C         143.8056  138.7094  160.4096 C.3     1  UNL1        0.0369
      7 O         143.7521  138.5531  156.5693 O.2     1  UNL1       -0.2668
      8 C         143.1062  137.3305  157.1505 C.2     1  UNL1        0.2806
      9 N         142.5883  137.3530  158.5580 N.am    1  UNL1       -0.2999
     10 H         142.1644  136.5505  158.9395 H       1  UNL1        0.1498
     11 C         142.9782  136.0851  156.3241 C.ar    1  UNL1        0.2014
     12 C         142.0200  136.0456  155.1707 C.ar    1  UNL1        0.0843
     13 C         141.8920  134.8003  154.3444 C.ar    1  UNL1        0.2018
     14 O         140.9338  134.7608  153.1910 O.2     1  UNL1       -0.2864
     15 C         142.7222  133.5945  154.6714 C.ar    1  UNL1        0.0737
     16 C         142.5942  132.3492  153.8450 C.ar    1  UNL1        0.0085
     17 C         143.4244  131.1435  154.1721 C.ar    1  UNL1        0.0299
     18 C         144.3826  131.1831  155.3255 C.ar    1  UNL1        0.1432
     19 F         145.2128  129.9773  155.6525 F       1  UNL1       -0.2041
     20 C         144.5106  132.4283  156.1518 C.ar    1  UNL1        0.0672
     21 C         143.6804  133.6340  155.8248 C.ar    1  UNL1        0.1508
     22 O         143.8084  134.8794  156.6511 O.2     1  UNL1       -0.4486
     23 C         143.1002  142.3341  161.8636 C.3     1  UNL1        0.0992
     24 C         142.4468  142.4101  163.2116 C.ar    1  UNL1       -0.0037
     25 C         140.9548  142.5234  163.3166 C.ar    1  UNL1        0.0003
     26 C         140.3015  142.5994  164.6647 C.ar    1  UNL1        0.0390
     27 C         141.1401  142.5620  165.9078 C.ar    1  UNL1        0.1658
     28 C         142.6321  142.4487  165.8028 C.ar    1  UNL1        0.1735
     29 F         143.4708  142.4114  167.0459 F       1  UNL1       -0.2010
     30 C         143.2854  142.3727  164.4547 C.ar    1  UNL1        0.0299
     31 O         140.4867  142.6380  167.2559 O.3     1  UNL1       -0.4731
     32 C         140.3618  141.4040  168.0994 C.3     1  UNL1        0.2070
     33 C         140.4839  140.0487  167.4684 C.3     1  UNL1        0.0646
     34 C         139.4242  139.5626  166.5245 C.3     1  UNL1        0.0761
     35 N         139.8117  138.8212  165.2794 N.3     1  UNL1       -0.2683
     36 C         141.2598  138.5910  164.9636 C.3     1  UNL1        0.1046
     37 C         141.6473  137.8496  163.7186 C.3     1  UNL1        0.1595
     38 O         140.5867  137.3384  162.7893 O.3     1  UNL1       -0.3508
     39 C         139.1384  137.5686  163.1051 C.3     1  UNL1        0.1595
     40 C         138.7509  138.3100  164.3501 C.3     1  UNL1        0.1046
@<TRIPOS>BOND
     1     7     8    2
     2     8     9   am
     3     9     1    1
     4     1     2    1
     5     2     3    1
     6     3     4    1
     7     4    23    1
     8    23    24    1
     9    24    25   ar
    10    25    26   ar
    11    26    27   ar
    12    27    31    1
    13    31    32    1
    14    32    33    1
    15    33    34    1
    16    34    35    1
    17    35    36    1
    18    36    37    1
    19    37    38    1
    20    38    39    1
    21    39    40    1
    22    27    28   ar
    23    28    29    1
    24    28    30   ar
    25     4     5    1
    26     5     6    1
    27     8    11    1
    28    11    12   ar
    29    12    13   ar
    30    13    14    2
    31    13    15   ar
    32    15    16   ar
    33    16    17   ar
    34    17    18   ar
    35    18    19    1
    36    18    20   ar
    37    20    21   ar
    38    21    22   ar
    39     6     1    1
    40    22    11   ar
    41    30    24   ar
    42    21    15   ar
    43    40    35    1
    44     9    10    1
@<TRIPOS>MOLECULE
*****
 40 44 0 0 0
SMALL
GASTEIGER

@<TRIPOS>ATOM
      1 C         143.1981  139.0426  159.5512 C.3     1  UNL1        0.0747
      2 C         141.7104  138.8537  159.5826 C.3     1  UNL1        0.0369
      3 C         141.0553  138.2584  160.7935 C.3     1  UNL1        0.0741
      4 N         141.8880  137.8519  161.9731 N.3     1  UNL1       -0.2689
      5 C         143.3757  138.0407  161.9417 C.3     1  UNL1        0.0741
      6 C         144.0308  138.6361  160.7307 C.3     1  UNL1        0.0369
      7 O         143.6301  142.0066  159.3840 O.2     1  UNL1       -0.2668
      8 C         144.0691  141.1199  158.2566 C.2     1  UNL1        0.2806
      9 N         143.8532  139.6379  158.3402 N.am    1  UNL1       -0.2999
     10 H         144.1413  139.0559  157.6003 H       1  UNL1        0.1498
     11 C         144.7242  141.7152  157.0456 C.ar    1  UNL1        0.2014
     12 C         143.9133  142.5197  156.0734 C.ar    1  UNL1        0.0843
     13 C         144.5683  143.1150  154.8624 C.ar    1  UNL1        0.2018
     14 O         143.7573  143.9194  153.8902 O.2     1  UNL1       -0.2864
     15 C         146.0343  142.9059  154.6236 C.ar    1  UNL1        0.0737
     16 C         146.6893  143.5012  153.4126 C.ar    1  UNL1        0.0085
     17 C         148.1553  143.2920  153.1738 C.ar    1  UNL1        0.0299
     18 C         148.9663  142.4876  154.1460 C.ar    1  UNL1        0.1432
     19 F         150.4324  142.2785  153.9072 F       1  UNL1       -0.2041
     20 C         148.3113  141.8923  155.3570 C.ar    1  UNL1        0.0672
     21 C         146.8453  142.1014  155.5958 C.ar    1  UNL1        0.1508
     22 O         146.1902  141.5061  156.8068 O.2     1  UNL1       -0.4486
     23 C         141.2330  137.2565  163.1841 C.3     1  UNL1        0.0992
     24 C         140.9982  138.1010  164.4013 C.ar    1  UNL1       -0.0037
     25 C         139.6303  138.6489  164.6817 C.ar    1  UNL1        0.0003
     26 C         139.3956  139.4934  165.8989 C.ar    1  UNL1        0.0390
     27 C         140.5288  139.7901  166.8358 C.ar    1  UNL1        0.1658
     28 C         141.8967  139.2423  166.5554 C.ar    1  UNL1        0.1735
     29 F         143.0300  139.5390  167.4923 F       1  UNL1       -0.2010
     30 C         142.1314  138.3978  165.3382 C.ar    1  UNL1        0.0299
     31 O         140.2941  140.6346  168.0531 O.3     1  UNL1       -0.4731
     32 C         140.5318  142.1145  167.9964 C.3     1  UNL1        0.2070
     33 C         140.8437  142.7744  166.6859 C.3     1  UNL1        0.0646
     34 C         142.2511  142.7832  166.1668 C.3     1  UNL1        0.0761
     35 N         142.5532  143.3905  164.8290 N.3     1  UNL1       -0.2683
     36 C         143.8712  143.1236  164.1646 C.3     1  UNL1        0.1046
     37 C         144.1734  143.7309  162.8267 C.3     1  UNL1        0.1595
     38 O         143.1576  144.6052  162.1533 O.3     1  UNL1       -0.3508
     39 C         141.8395  144.8723  162.8177 C.3     1  UNL1        0.1595
     40 C         141.5373  144.2649  164.1556 C.3     1  UNL1        0.1046
@<TRIPOS>BOND
     1     7     8    2
     2     8     9   am
     3     9     1    1
     4     1     2    1
     5     2     3    1
     6     3     4    1
     7     4    23    1
     8    23    24    1
     9    24    25   ar
    10    25    26   ar
    11    26    27   ar
    12    27    31    1
    13    31    32    1
    14    32    33    1
    15    33    34    1
    16    34    35    1
    17    35    36    1
    18    36    37    1
    19    37    38    1
    20    38    39    1
    21    39    40    1
    22    27    28   ar
    23    28    29    1
    24    28    30   ar
    25     4     5    1
    26     5     6    1
    27     8    11    1
    28    11    12   ar
    29    12    13   ar
    30    13    14    2
    31    13    15   ar
    32    15    16   ar
    33    16    17   ar
    34    17    18   ar
    35    18    19    1
    36    18    20   ar
    37    20    21   ar
    38    21    22   ar
    39     6     1    1
    40    22    11   ar
    41    30    24   ar
    42    21    15   ar
    43    40    35    1
    44     9    10    1
