@<TRIPOS>MOLECULE
*****
 41 46 0 0 0
SMALL
GASTEIGER

@<TRIPOS>ATOM
      1 C         141.6649  138.0824  162.1277 C.ar    1  UNL1        0.2221
      2 N         140.9074  137.0002  162.8384 N.ar    1  UNL1       -0.2119
      3 C         140.7202  137.0681  164.3252 C.ar    1  UNL1        0.1050
      4 C         141.2905  138.2181  165.1012 C.ar    1  UNL1        0.0596
      5 C         142.0480  139.3003  164.3905 C.ar    1  UNL1        0.1683
      6 N         142.2352  139.2325  162.9038 N.ar    1  UNL1       -0.1944
      7 N         142.6183  140.4503  165.1665 N.ar    1  UNL1       -0.2096
      8 C         142.5264  140.6441  166.6511 C.ar    1  UNL1        0.1175
      9 C         143.2319  141.9220  166.9963 C.ar    1  UNL1        0.0796
     10 C         143.7599  142.5180  165.7250 C.ar    1  UNL1        0.0939
     11 C         144.5317  143.7987  165.6056 C.3     1  UNL1        0.0553
     12 N         143.3807  141.6084  164.5942 N.ar    1  UNL1       -0.1668
     13 N         143.3829  142.5021  168.3713 N.pl3   1  UNL1       -0.3306
     14 H         144.2099  142.9762  168.6175 H       1  UNL1        0.1469
     15 C         142.2739  142.3600  169.3713 C.3     1  UNL1        0.0884
     16 C         141.0984  143.2908  169.3250 C.3     1  UNL1        0.0530
     17 C         139.9894  143.1486  170.3250 C.3     1  UNL1        0.1440
     18 O         140.0559  142.0758  171.3712 O.3     1  UNL1       -0.3522
     19 C         141.2313  141.1450  171.4175 C.3     1  UNL1        0.1592
     20 C         142.3404  141.2872  170.4175 C.3     1  UNL1        0.0990
     21 N         143.5157  140.3565  170.4638 N.3     1  UNL1       -0.3189
     22 H         143.3962  139.6958  171.2317 H       1  UNL1        0.1189
     23 H         144.3701  140.8947  170.6082 H       1  UNL1        0.1189
     24 N         141.8521  138.0146  160.6410 N.pl3   1  UNL1       -0.2825
     25 H         142.6009  137.4999  160.2622 H       1  UNL1        0.1551
     26 C         138.5362  142.0079  159.4236 C.ar    1  UNL1        0.1572
     27 N         137.7392  142.2270  158.1719 N.ar    1  UNL1       -0.1644
     28 N         138.0202  141.0873  157.2381 N.ar    1  UNL1       -0.2487
     29 C         137.4336  140.9033  155.8699 C.3     1  UNL1        0.1537
     30 C         138.9910  140.1639  157.9126 C.ar    1  UNL1        0.0796
     31 C         139.6258  138.8785  157.4713 C.ar    1  UNL1        0.0201
     32 C         140.5795  138.1621  158.3808 C.ar    1  UNL1        0.0162
     33 C         140.8984  138.7311  159.7315 C.ar    1  UNL1        0.0506
     34 C         140.2636  140.0165  160.1728 C.ar    1  UNL1        0.0179
     35 C         139.3099  140.7329  159.2633 C.ar    1  UNL1        0.0425
     36 C         137.6581  143.9576  164.2515 C.3     1  UNL1        0.0967
     37 C         138.1525  143.8024  162.8439 C.ar    1  UNL1        0.2270
     38 N         139.0211  144.7747  162.1022 N.ar    1  UNL1       -0.1113
     39 N         139.2706  144.2209  160.7307 N.ar    1  UNL1       -0.1055
     40 C         138.5561  142.9062  160.6247 C.ar    1  UNL1        0.2690
     41 O         137.8652  142.6476  161.9307 O.2     1  UNL1       -0.4182
@<TRIPOS>BOND
     1    36    37    1
     2    37    38   ar
     3    38    39   ar
     4    39    40   ar
     5    40    26    1
     6    26    27   ar
     7    27    28   ar
     8    28    29    1
     9    28    30   ar
    10    30    31   ar
    11    31    32   ar
    12    32    33   ar
    13    33    24    1
    14    24     1    1
    15     1     2   ar
    16     2     3   ar
    17     3     4   ar
    18     4     5   ar
    19     5     7    1
    20     7     8   ar
    21     8     9   ar
    22     9    13    1
    23    15    13    1
    24    15    16    1
    25    16    17    1
    26    17    18    1
    27    18    19    1
    28    19    20    1
    29    20    21    1
    30     9    10   ar
    31    10    11    1
    32    10    12   ar
    33     5     6   ar
    34    33    34   ar
    35    34    35   ar
    36    40    41   ar
    37    41    37   ar
    38    35    26   ar
    39    35    30   ar
    40     6     1   ar
    41    12     7   ar
    42    20    15    1
    43    24    25    1
    44    13    14    1
    45    21    22    1
    46    21    23    1
@<TRIPOS>MOLECULE
*****
 41 46 0 0 0
SMALL
GASTEIGER

@<TRIPOS>ATOM
      1 C         144.1137  140.4634  161.0416 C.ar    1  UNL1        0.2221
      2 N         144.1243  139.1381  160.3390 N.ar    1  UNL1       -0.2119
      3 C         143.6140  137.9138  161.0396 C.ar    1  UNL1        0.1050
      4 C         143.0932  138.0148  162.4426 C.ar    1  UNL1        0.0596
      5 C         143.0826  139.3400  163.1452 C.ar    1  UNL1        0.1683
      6 N         143.5929  140.5643  162.4447 N.ar    1  UNL1       -0.1944
      7 N         142.5619  139.4410  164.5482 N.ar    1  UNL1       -0.2096
      8 C         143.3646  139.2577  165.8020 C.ar    1  UNL1        0.1175
      9 C         142.4458  139.4464  166.9725 C.ar    1  UNL1        0.0796
     10 C         141.0751  139.7463  166.4421 C.ar    1  UNL1        0.0939
     11 C         139.8480  140.0043  167.2654 C.3     1  UNL1        0.0553
     12 N         141.1468  139.7430  164.9438 N.ar    1  UNL1       -0.1668
     13 N         142.8301  139.3519  168.4193 N.pl3   1  UNL1       -0.3306
     14 H         143.2421  138.5278  168.7664 H       1  UNL1        0.1469
     15 C         142.5867  140.5129  169.3374 C.3     1  UNL1        0.0884
     16 C         143.3464  141.7922  169.1464 C.3     1  UNL1        0.0530
     17 C         143.1030  142.9532  170.0645 C.3     1  UNL1        0.1440
     18 O         142.1000  142.8349  171.1736 O.3     1  UNL1       -0.3522
     19 C         141.3404  141.5556  171.3646 C.3     1  UNL1        0.1592
     20 C         141.5837  140.3946  170.4465 C.3     1  UNL1        0.0990
     21 N         140.8241  139.1154  170.6375 N.3     1  UNL1       -0.3189
     22 H         140.1906  139.2114  171.4311 H       1  UNL1        0.1189
     23 H         141.4793  138.3543  170.8156 H       1  UNL1        0.1189
     24 N         144.6239  141.6877  160.3411 N.pl3   1  UNL1       -0.2825
     25 H         145.5927  141.8525  160.2807 H       1  UNL1        0.1551
     26 C         140.4175  144.9580  160.5287 C.ar    1  UNL1        0.1572
     27 N         139.8250  145.8000  159.4379 N.ar    1  UNL1       -0.1644
     28 N         140.6342  145.5832  158.1936 N.ar    1  UNL1       -0.2487
     29 C         140.3930  146.2290  156.8614 C.3     1  UNL1        0.1537
     30 C         141.7268  144.6072  158.5154 C.ar    1  UNL1        0.0796
     31 C         142.8264  144.0205  157.6808 C.ar    1  UNL1        0.0201
     32 C         143.7921  143.0473  158.2894 C.ar    1  UNL1        0.0162
     33 C         143.6582  142.6609  159.7325 C.ar    1  UNL1        0.0506
     34 C         142.5586  143.2476  160.5672 C.ar    1  UNL1        0.0179
     35 C         141.5930  144.2208  159.9586 C.ar    1  UNL1        0.0425
     36 C         137.3301  144.0806  164.7214 C.3     1  UNL1        0.0967
     37 C         138.5026  144.4655  163.8688 C.ar    1  UNL1        0.2270
     38 N         139.8152  144.9976  164.3629 N.ar    1  UNL1       -0.1113
     39 N         140.6923  145.2468  163.1718 N.ar    1  UNL1       -0.1055
     40 C         139.9218  144.8688  161.9416 C.ar    1  UNL1        0.2690
     41 O         138.5686  144.3859  162.3723 O.2     1  UNL1       -0.4182
@<TRIPOS>BOND
     1    36    37    1
     2    37    38   ar
     3    38    39   ar
     4    39    40   ar
     5    40    26    1
     6    26    27   ar
     7    27    28   ar
     8    28    29    1
     9    28    30   ar
    10    30    31   ar
    11    31    32   ar
    12    32    33   ar
    13    33    24    1
    14    24     1    1
    15     1     2   ar
    16     2     3   ar
    17     3     4   ar
    18     4     5   ar
    19     5     7    1
    20     7     8   ar
    21     8     9   ar
    22     9    13    1
    23    15    13    1
    24    15    16    1
    25    16    17    1
    26    17    18    1
    27    18    19    1
    28    19    20    1
    29    20    21    1
    30     9    10   ar
    31    10    11    1
    32    10    12   ar
    33     5     6   ar
    34    33    34   ar
    35    34    35   ar
    36    40    41   ar
    37    41    37   ar
    38    35    26   ar
    39    35    30   ar
    40     6     1   ar
    41    12     7   ar
    42    20    15    1
    43    24    25    1
    44    13    14    1
    45    21    22    1
    46    21    23    1
@<TRIPOS>MOLECULE
*****
 41 46 0 0 0
SMALL
GASTEIGER

@<TRIPOS>ATOM
      1 C         138.6517  143.2287  161.7278 C.ar    1  UNL1        0.2221
      2 N         138.5610  144.6500  162.1987 N.ar    1  UNL1       -0.2119
      3 C         138.5456  144.9540  163.6675 C.ar    1  UNL1        0.1050
      4 C         138.6208  143.8366  164.6655 C.ar    1  UNL1        0.0596
      5 C         138.7114  142.4153  164.1946 C.ar    1  UNL1        0.1683
      6 N         138.7269  142.1114  162.7258 N.ar    1  UNL1       -0.1944
      7 N         138.7866  141.2980  165.1925 N.ar    1  UNL1       -0.2096
      8 C         139.7040  141.2346  166.3776 C.ar    1  UNL1        0.1175
      9 C         139.4420  139.9453  167.0981 C.ar    1  UNL1        0.0796
     10 C         138.3627  139.2119  166.3582 C.ar    1  UNL1        0.0939
     11 C         137.7891  137.8769  166.7307 C.3     1  UNL1        0.0553
     12 N         137.9577  140.0480  165.1805 N.ar    1  UNL1       -0.1668
     13 N         140.1372  139.4724  168.3403 N.pl3   1  UNL1       -0.3306
     14 H         140.1476  138.5137  168.5639 H       1  UNL1        0.1469
     15 C         140.8165  140.4602  169.2418 C.3     1  UNL1        0.0884
     16 C         142.2864  140.7216  169.0958 C.3     1  UNL1        0.0530
     17 C         142.9657  141.7094  169.9973 C.3     1  UNL1        0.1440
     18 O         142.1752  142.4358  171.0449 O.3     1  UNL1       -0.3522
     19 C         140.7053  142.1744  171.1909 C.3     1  UNL1        0.1592
     20 C         140.0260  141.1866  170.2894 C.3     1  UNL1        0.0990
     21 N         138.5563  140.9253  170.4355 N.3     1  UNL1       -0.3189
     22 H         138.1820  141.5006  171.1900 H       1  UNL1        0.1189
     23 H         138.4060  139.9400  170.6525 H       1  UNL1        0.1189
     24 N         138.6671  142.9248  160.2591 N.pl3   1  UNL1       -0.2825
     25 H         137.8205  142.7838  159.7766 H       1  UNL1        0.1551
     26 C         143.9814  142.5594  160.0387 C.ar    1  UNL1        0.1572
     27 N         144.8761  142.4989  158.8363 N.ar    1  UNL1       -0.1644
     28 N         144.0116  142.5594  157.6119 N.ar    1  UNL1       -0.2487
     29 C         144.4918  142.5276  156.1912 C.3     1  UNL1        0.1537
     30 C         142.5827  142.6573  158.0577 C.ar    1  UNL1        0.0796
     31 C         141.2962  142.7464  157.2916 C.ar    1  UNL1        0.0201
     32 C         139.9910  142.8356  158.0254 C.ar    1  UNL1        0.0162
     33 C         139.9724  142.8356  159.5253 C.ar    1  UNL1        0.0506
     34 C         141.2589  142.7465  160.2913 C.ar    1  UNL1        0.0179
     35 C         142.5640  142.6573  159.5575 C.ar    1  UNL1        0.0425
     36 C         144.4311  143.6617  165.1830 C.3     1  UNL1        0.0967
     37 C         144.6327  143.0343  163.8356 C.ar    1  UNL1        0.2270
     38 N         145.5877  141.9230  163.5144 N.ar    1  UNL1       -0.1113
     39 N         145.4599  141.6099  162.0530 N.ar    1  UNL1       -0.1055
     40 C         144.4260  142.5276  161.4710 C.ar    1  UNL1        0.2690
     41 O         143.9148  143.4079  162.5726 O.2     1  UNL1       -0.4182
@<TRIPOS>BOND
     1    36    37    1
     2    37    38   ar
     3    38    39   ar
     4    39    40   ar
     5    40    26    1
     6    26    27   ar
     7    27    28   ar
     8    28    29    1
     9    28    30   ar
    10    30    31   ar
    11    31    32   ar
    12    32    33   ar
    13    33    24    1
    14    24     1    1
    15     1     2   ar
    16     2     3   ar
    17     3     4   ar
    18     4     5   ar
    19     5     7    1
    20     7     8   ar
    21     8     9   ar
    22     9    13    1
    23    15    13    1
    24    15    16    1
    25    16    17    1
    26    17    18    1
    27    18    19    1
    28    19    20    1
    29    20    21    1
    30     9    10   ar
    31    10    11    1
    32    10    12   ar
    33     5     6   ar
    34    33    34   ar
    35    34    35   ar
    36    40    41   ar
    37    41    37   ar
    38    35    26   ar
    39    35    30   ar
    40     6     1   ar
    41    12     7   ar
    42    20    15    1
    43    24    25    1
    44    13    14    1
    45    21    22    1
    46    21    23    1
@<TRIPOS>MOLECULE
*****
 41 46 0 0 0
SMALL
GASTEIGER

@<TRIPOS>ATOM
      1 C         144.2859  141.2330  161.8311 C.ar    1  UNL1        0.2221
      2 N         145.6182  141.4106  162.4970 N.ar    1  UNL1       -0.2119
      3 C         145.7398  141.2562  163.9841 C.ar    1  UNL1        0.1050
      4 C         144.5293  140.9243  164.8052 C.ar    1  UNL1        0.0596
      5 C         143.1970  140.7467  164.1393 C.ar    1  UNL1        0.1683
      6 N         143.0753  140.9011  162.6523 N.ar    1  UNL1       -0.1944
      7 N         141.9864  140.4148  164.9604 N.ar    1  UNL1       -0.2096
      8 C         141.9649  140.1685  166.4399 C.ar    1  UNL1        0.1175
      9 C         140.5500  139.8723  166.8401 C.ar    1  UNL1        0.0796
     10 C         139.6969  139.9356  165.6078 C.ar    1  UNL1        0.0939
     11 C         138.2160  139.7043  165.5478 C.3     1  UNL1        0.0553
     12 N         140.5847  140.2709  164.4462 N.ar    1  UNL1       -0.1668
     13 N         140.0720  139.5666  168.2286 N.pl3   1  UNL1       -0.3306
     14 H         139.5296  138.7623  168.3966 H       1  UNL1        0.1469
     15 C         140.4203  140.4863  169.3612 C.3     1  UNL1        0.0884
     16 C         139.6720  141.7742  169.5389 C.3     1  UNL1        0.0530
     17 C         140.0203  142.6939  170.6715 C.3     1  UNL1        0.1440
     18 O         141.1169  142.3258  171.6265 O.3     1  UNL1       -0.3522
     19 C         141.8652  141.0379  171.4488 C.3     1  UNL1        0.1592
     20 C         141.5169  140.1182  170.3162 C.3     1  UNL1        0.0990
     21 N         142.2651  138.8304  170.1386 N.3     1  UNL1       -0.3189
     22 H         142.9695  138.7426  170.8710 H       1  UNL1        0.1189
     23 H         142.7209  138.8251  169.2261 H       1  UNL1        0.1189
     24 N         144.1642  141.3874  160.3441 N.pl3   1  UNL1       -0.2825
     25 H         144.6644  140.7879  159.7444 H       1  UNL1        0.1551
     26 C         140.0864  144.8140  160.5748 C.ar    1  UNL1        0.1572
     27 N         139.6017  145.7786  159.5334 N.ar    1  UNL1       -0.1644
     28 N         140.4832  145.6405  158.3276 N.ar    1  UNL1       -0.2487
     29 C         140.3574  146.4162  157.0499 C.3     1  UNL1        0.1537
     30 C         141.5127  144.5906  158.6239 C.ar    1  UNL1        0.0796
     31 C         142.6418  144.0337  157.8084 C.ar    1  UNL1        0.0201
     32 C         143.5256  142.9660  158.3818 C.ar    1  UNL1        0.0162
     33 C         143.2803  142.4551  159.7707 C.ar    1  UNL1        0.0506
     34 C         142.1513  143.0120  160.5861 C.ar    1  UNL1        0.0179
     35 C         141.2675  144.0798  160.0127 C.ar    1  UNL1        0.0425
     36 C         139.5619  143.6971  165.7088 C.3     1  UNL1        0.0967
     37 C         139.2529  144.1046  164.2988 C.ar    1  UNL1        0.2270
     38 N         137.9118  144.5283  163.7771 N.ar    1  UNL1       -0.1113
     39 N         138.0608  144.8456  162.3187 N.ar    1  UNL1       -0.1055
     40 C         139.4940  144.6180  161.9389 C.ar    1  UNL1        0.2690
     41 O         140.2307  144.1601  163.1626 O.2     1  UNL1       -0.4182
@<TRIPOS>BOND
     1    36    37    1
     2    37    38   ar
     3    38    39   ar
     4    39    40   ar
     5    40    26    1
     6    26    27   ar
     7    27    28   ar
     8    28    29    1
     9    28    30   ar
    10    30    31   ar
    11    31    32   ar
    12    32    33   ar
    13    33    24    1
    14    24     1    1
    15     1     2   ar
    16     2     3   ar
    17     3     4   ar
    18     4     5   ar
    19     5     7    1
    20     7     8   ar
    21     8     9   ar
    22     9    13    1
    23    15    13    1
    24    15    16    1
    25    16    17    1
    26    17    18    1
    27    18    19    1
    28    19    20    1
    29    20    21    1
    30     9    10   ar
    31    10    11    1
    32    10    12   ar
    33     5     6   ar
    34    33    34   ar
    35    34    35   ar
    36    40    41   ar
    37    41    37   ar
    38    35    26   ar
    39    35    30   ar
    40     6     1   ar
    41    12     7   ar
    42    20    15    1
    43    24    25    1
    44    13    14    1
    45    21    22    1
    46    21    23    1
@<TRIPOS>MOLECULE
*****
 41 46 0 0 0
SMALL
GASTEIGER

@<TRIPOS>ATOM
      1 C         139.9785  144.8294  162.0909 C.ar    1  UNL1        0.2221
      2 N         138.5005  145.0361  162.2422 N.ar    1  UNL1       -0.2119
      3 C         137.7146  144.1708  163.1823 C.ar    1  UNL1        0.1050
      4 C         138.4066  143.0988  163.9710 C.ar    1  UNL1        0.0596
      5 C         139.8846  142.8921  163.8196 C.ar    1  UNL1        0.1683
      6 N         140.6705  143.7574  162.8796 N.ar    1  UNL1       -0.1944
      7 N         140.5767  141.8202  164.6082 N.ar    1  UNL1       -0.2096
      8 C         141.2754  142.0046  165.9227 C.ar    1  UNL1        0.1175
      9 C         141.8221  140.6740  166.3477 C.ar    1  UNL1        0.0796
     10 C         141.4612  139.6673  165.2959 C.ar    1  UNL1        0.0939
     11 C         141.8090  138.2083  165.3157 C.3     1  UNL1        0.0553
     12 N         140.6915  140.3757  164.2208 N.ar    1  UNL1       -0.1668
     13 N         142.5940  140.3986  167.6040 N.pl3   1  UNL1       -0.3306
     14 H         143.5076  140.0354  167.5507 H       1  UNL1        0.1469
     15 C         141.9742  140.6764  168.9414 C.3     1  UNL1        0.0884
     16 C         140.8309  139.8356  169.4273 C.3     1  UNL1        0.0530
     17 C         140.2110  140.1134  170.7647 C.3     1  UNL1        0.1440
     18 O         140.7343  141.2319  171.6161 O.3     1  UNL1       -0.3522
     19 C         141.8776  142.0727  171.1302 C.3     1  UNL1        0.1592
     20 C         142.4975  141.7949  169.7928 C.3     1  UNL1        0.0990
     21 N         143.6407  142.6357  169.3069 N.3     1  UNL1       -0.3189
     22 H         143.8641  143.3431  170.0069 H       1  UNL1        0.1189
     23 H         143.3794  143.0925  168.4332 H       1  UNL1        0.1189
     24 N         140.7644  145.6946  161.1508 N.pl3   1  UNL1       -0.2825
     25 H         140.8796  146.6531  161.3439 H       1  UNL1        0.1551
     26 C         143.4325  141.9004  158.5223 C.ar    1  UNL1        0.1572
     27 N         143.8047  141.8391  157.0705 N.ar    1  UNL1       -0.1644
     28 N         143.2873  143.0807  156.4067 N.ar    1  UNL1       -0.2487
     29 C         143.4357  143.4321  154.9559 C.3     1  UNL1        0.1537
     30 C         142.5955  143.9094  157.4481 C.ar    1  UNL1        0.0796
     31 C         141.8953  145.2339  157.3748 C.ar    1  UNL1        0.0201
     32 C         141.2850  145.8290  158.6090 C.ar    1  UNL1        0.0162
     33 C         141.3748  145.0995  159.9166 C.ar    1  UNL1        0.0506
     34 C         142.0749  143.7750  159.9899 C.ar    1  UNL1        0.0179
     35 C         142.6852  143.1799  158.7557 C.ar    1  UNL1        0.0425
     36 C         144.5207  139.5880  163.1428 C.3     1  UNL1        0.0967
     37 C         144.2519  139.8013  161.6827 C.ar    1  UNL1        0.2270
     38 N         144.2338  138.7378  160.6250 N.ar    1  UNL1       -0.1113
     39 N         143.9247  139.3947  159.3124 N.ar    1  UNL1       -0.1055
     40 C         143.7517  140.8642  159.5588 C.ar    1  UNL1        0.2690
     41 O         143.9539  141.1154  161.0237 O.2     1  UNL1       -0.4182
@<TRIPOS>BOND
     1    36    37    1
     2    37    38   ar
     3    38    39   ar
     4    39    40   ar
     5    40    26    1
     6    26    27   ar
     7    27    28   ar
     8    28    29    1
     9    28    30   ar
    10    30    31   ar
    11    31    32   ar
    12    32    33   ar
    13    33    24    1
    14    24     1    1
    15     1     2   ar
    16     2     3   ar
    17     3     4   ar
    18     4     5   ar
    19     5     7    1
    20     7     8   ar
    21     8     9   ar
    22     9    13    1
    23    15    13    1
    24    15    16    1
    25    16    17    1
    26    17    18    1
    27    18    19    1
    28    19    20    1
    29    20    21    1
    30     9    10   ar
    31    10    11    1
    32    10    12   ar
    33     5     6   ar
    34    33    34   ar
    35    34    35   ar
    36    40    41   ar
    37    41    37   ar
    38    35    26   ar
    39    35    30   ar
    40     6     1   ar
    41    12     7   ar
    42    20    15    1
    43    24    25    1
    44    13    14    1
    45    21    22    1
    46    21    23    1
@<TRIPOS>MOLECULE
*****
 41 46 0 0 0
SMALL
GASTEIGER

@<TRIPOS>ATOM
      1 C         138.6343  143.0172  161.5256 C.ar    1  UNL1        0.2221
      2 N         138.8438  144.4518  161.9103 N.ar    1  UNL1       -0.2119
      3 C         139.0488  144.8201  163.3499 C.ar    1  UNL1        0.1050
      4 C         139.0443  143.7537  164.4048 C.ar    1  UNL1        0.0596
      5 C         138.8348  142.3191  164.0202 C.ar    1  UNL1        0.1683
      6 N         138.6298  141.9508  162.5806 N.ar    1  UNL1       -0.1944
      7 N         138.8302  141.2528  165.0751 N.ar    1  UNL1       -0.2096
      8 C         139.6334  141.2624  166.3419 C.ar    1  UNL1        0.1175
      9 C         139.3213  140.0051  167.0982 C.ar    1  UNL1        0.0796
     10 C         138.3252  139.2185  166.2987 C.ar    1  UNL1        0.0939
     11 C         137.7361  137.8934  166.6822 C.3     1  UNL1        0.0553
     12 N         138.0218  139.9896  165.0483 N.ar    1  UNL1       -0.1668
     13 N         139.9031  139.6048  168.4215 N.pl3   1  UNL1       -0.3306
     14 H         139.8872  138.6609  168.7009 H       1  UNL1        0.1469
     15 C         140.5090  140.6426  169.3192 C.3     1  UNL1        0.0884
     16 C         139.6286  141.6347  170.0198 C.3     1  UNL1        0.0530
     17 C         140.2345  142.6725  170.9175 C.3     1  UNL1        0.1440
     18 O         141.7208  142.7182  171.1146 O.3     1  UNL1       -0.3522
     19 C         142.6012  141.7262  170.4140 C.3     1  UNL1        0.1592
     20 C         141.9953  140.6884  169.5163 C.3     1  UNL1        0.0990
     21 N         142.8757  139.6964  168.8157 N.3     1  UNL1       -0.3189
     22 H         143.8496  139.8727  169.0621 H       1  UNL1        0.1189
     23 H         142.7579  139.7902  167.8069 H       1  UNL1        0.1189
     24 N         138.4293  142.6489  160.0861 N.pl3   1  UNL1       -0.2825
     25 H         137.8033  143.1665  159.5299 H       1  UNL1        0.1551
     26 C         142.4551  139.1559  159.9600 C.ar    1  UNL1        0.1572
     27 N         142.7215  138.0550  158.9766 N.ar    1  UNL1       -0.1644
     28 N         141.6217  138.0686  157.9567 N.ar    1  UNL1       -0.2487
     29 C         141.4909  137.1365  156.7887 C.3     1  UNL1        0.1537
     30 C         140.6757  139.1779  158.3097 C.ar    1  UNL1        0.0796
     31 C         139.4118  139.6628  157.6637 C.ar    1  UNL1        0.0201
     32 C         138.6630  140.8198  158.2558 C.ar    1  UNL1        0.0162
     33 C         139.1781  141.4918  159.4940 C.ar    1  UNL1        0.0506
     34 C         140.4420  141.0069  160.1400 C.ar    1  UNL1        0.0179
     35 C         141.1908  139.8499  159.5479 C.ar    1  UNL1        0.0425
     36 C         145.6336  141.7669  163.2707 C.3     1  UNL1        0.0967
     37 C         144.7651  140.7023  162.6690 C.ar    1  UNL1        0.2270
     38 N         144.4558  139.3674  163.2793 N.ar    1  UNL1       -0.1113
     39 N         143.5529  138.6257  162.3388 N.ar    1  UNL1       -0.1055
     40 C         143.3041  139.5021  161.1472 C.ar    1  UNL1        0.2690
     41 O         144.0532  140.7855  161.3513 O.2     1  UNL1       -0.4182
@<TRIPOS>BOND
     1    36    37    1
     2    37    38   ar
     3    38    39   ar
     4    39    40   ar
     5    40    26    1
     6    26    27   ar
     7    27    28   ar
     8    28    29    1
     9    28    30   ar
    10    30    31   ar
    11    31    32   ar
    12    32    33   ar
    13    33    24    1
    14    24     1    1
    15     1     2   ar
    16     2     3   ar
    17     3     4   ar
    18     4     5   ar
    19     5     7    1
    20     7     8   ar
    21     8     9   ar
    22     9    13    1
    23    15    13    1
    24    15    16    1
    25    16    17    1
    26    17    18    1
    27    18    19    1
    28    19    20    1
    29    20    21    1
    30     9    10   ar
    31    10    11    1
    32    10    12   ar
    33     5     6   ar
    34    33    34   ar
    35    34    35   ar
    36    40    41   ar
    37    41    37   ar
    38    35    26   ar
    39    35    30   ar
    40     6     1   ar
    41    12     7   ar
    42    20    15    1
    43    24    25    1
    44    13    14    1
    45    21    22    1
    46    21    23    1
@<TRIPOS>MOLECULE
*****
 41 46 0 0 0
SMALL
GASTEIGER

@<TRIPOS>ATOM
      1 C         139.8254  138.9738  160.4669 C.ar    1  UNL1        0.2221
      2 N         138.4826  139.5454  160.1201 N.ar    1  UNL1       -0.2119
      3 C         137.6102  140.1179  161.1977 C.ar    1  UNL1        0.1050
      4 C         138.0806  140.1188  162.6220 C.ar    1  UNL1        0.0596
      5 C         139.4234  139.5473  162.9688 C.ar    1  UNL1        0.1683
      6 N         140.2958  138.9748  161.8913 N.ar    1  UNL1       -0.1944
      7 N         139.8938  139.5483  164.3931 N.ar    1  UNL1       -0.2096
      8 C         139.0321  139.7385  165.6061 C.ar    1  UNL1        0.1175
      9 C         139.9142  139.6670  166.8172 C.ar    1  UNL1        0.0796
     10 C         141.3211  139.4325  166.3527 C.ar    1  UNL1        0.0939
     11 C         142.5286  139.2955  167.2320 C.3     1  UNL1        0.0553
     12 N         141.3084  139.3592  164.8545 N.ar    1  UNL1       -0.1668
     13 N         139.4678  139.8056  168.2425 N.pl3   1  UNL1       -0.3306
     14 H         138.8357  139.1553  168.6258 H       1  UNL1        0.1469
     15 C         139.9845  140.9348  169.0838 C.3     1  UNL1        0.0884
     16 C         140.2844  142.2629  168.4542 C.3     1  UNL1        0.0530
     17 C         140.8011  143.3922  169.2956 C.3     1  UNL1        0.1440
     18 O         141.0179  143.1934  170.7664 O.3     1  UNL1       -0.3522
     19 C         140.7180  141.8653  171.3960 C.3     1  UNL1        0.1592
     20 C         140.2013  140.7360  170.5547 C.3     1  UNL1        0.0990
     21 N         139.9015  139.4080  171.1843 N.3     1  UNL1       -0.3189
     22 H         140.1051  139.4515  172.1828 H       1  UNL1        0.1189
     23 H         140.4792  138.6880  170.7505 H       1  UNL1        0.1189
     24 N         140.6979  138.4014  159.3894 N.pl3   1  UNL1       -0.2825
     25 H         140.5661  137.4725  159.0910 H       1  UNL1        0.1551
     26 C         144.4352  142.2012  159.5219 C.ar    1  UNL1        0.1572
     27 N         145.3306  142.6858  158.4203 N.ar    1  UNL1       -0.1644
     28 N         145.0105  141.8999  157.1834 N.ar    1  UNL1       -0.2487
     29 C         145.6681  142.0568  155.8443 C.3     1  UNL1        0.1537
     30 C         143.9173  140.9297  157.5205 C.ar    1  UNL1        0.0796
     31 C         143.1997  139.9007  156.6981 C.ar    1  UNL1        0.0201
     32 C         142.1266  139.0580  157.3211 C.ar    1  UNL1        0.0162
     33 C         141.7711  139.2442  158.7664 C.ar    1  UNL1        0.0506
     34 C         142.4886  140.2731  159.5888 C.ar    1  UNL1        0.0179
     35 C         143.5618  141.1159  158.9658 C.ar    1  UNL1        0.0425
     36 C         143.4427  145.1683  163.7753 C.3     1  UNL1        0.0967
     37 C         143.9603  144.0760  162.8872 C.ar    1  UNL1        0.2270
     38 N         144.8154  142.9210  163.3169 N.ar    1  UNL1       -0.1113
     39 N         145.0974  142.0781  162.1086 N.ar    1  UNL1       -0.1055
     40 C         144.4165  142.7122  160.9320 C.ar    1  UNL1        0.2690
     41 O         143.7139  143.9469  161.4132 O.2     1  UNL1       -0.4182
@<TRIPOS>BOND
     1    36    37    1
     2    37    38   ar
     3    38    39   ar
     4    39    40   ar
     5    40    26    1
     6    26    27   ar
     7    27    28   ar
     8    28    29    1
     9    28    30   ar
    10    30    31   ar
    11    31    32   ar
    12    32    33   ar
    13    33    24    1
    14    24     1    1
    15     1     2   ar
    16     2     3   ar
    17     3     4   ar
    18     4     5   ar
    19     5     7    1
    20     7     8   ar
    21     8     9   ar
    22     9    13    1
    23    15    13    1
    24    15    16    1
    25    16    17    1
    26    17    18    1
    27    18    19    1
    28    19    20    1
    29    20    21    1
    30     9    10   ar
    31    10    11    1
    32    10    12   ar
    33     5     6   ar
    34    33    34   ar
    35    34    35   ar
    36    40    41   ar
    37    41    37   ar
    38    35    26   ar
    39    35    30   ar
    40     6     1   ar
    41    12     7   ar
    42    20    15    1
    43    24    25    1
    44    13    14    1
    45    21    22    1
    46    21    23    1
@<TRIPOS>MOLECULE
*****
 41 46 0 0 0
SMALL
GASTEIGER

@<TRIPOS>ATOM
      1 C         138.2508  140.2168  161.8121 C.ar    1  UNL1        0.2221
      2 N         137.6110  138.8947  161.5080 N.ar    1  UNL1       -0.2119
      3 C         138.0355  137.6662  162.2568 C.ar    1  UNL1        0.1050
      4 C         139.0998  137.7598  163.3096 C.ar    1  UNL1        0.0596
      5 C         139.7396  139.0820  163.6137 C.ar    1  UNL1        0.1683
      6 N         139.3152  140.3105  162.8650 N.ar    1  UNL1       -0.1944
      7 N         140.8039  139.1756  164.6665 N.ar    1  UNL1       -0.2096
      8 C         141.0025  140.3159  165.6206 C.ar    1  UNL1        0.1175
      9 C         142.1778  139.9905  166.4938 C.ar    1  UNL1        0.0796
     10 C         142.7057  138.6489  166.0794 C.ar    1  UNL1        0.0939
     11 C         143.8771  137.9361  166.6876 C.3     1  UNL1        0.0553
     12 N         141.8566  138.1453  164.9501 N.ar    1  UNL1       -0.1668
     13 N         142.7286  140.8547  167.5891 N.pl3   1  UNL1       -0.3306
     14 H         143.5395  141.3906  167.4327 H       1  UNL1        0.1469
     15 C         142.0438  140.9026  168.9229 C.3     1  UNL1        0.0884
     16 C         140.8854  139.9920  169.2043 C.3     1  UNL1        0.0530
     17 C         140.2006  140.0398  170.5380 C.3     1  UNL1        0.1440
     18 O         140.6742  140.9982  171.5903 O.3     1  UNL1       -0.3522
     19 C         141.8325  141.9088  171.3088 C.3     1  UNL1        0.1592
     20 C         142.5173  141.8609  169.9751 C.3     1  UNL1        0.0990
     21 N         143.6756  142.7715  169.6937 N.3     1  UNL1       -0.3189
     22 H         143.8599  143.3503  170.5131 H       1  UNL1        0.1189
     23 H         143.4525  143.3696  168.8982 H       1  UNL1        0.1189
     24 N         137.8264  141.4454  161.0634 N.pl3   1  UNL1       -0.2825
     25 H         136.9216  141.8116  161.1912 H       1  UNL1        0.1551
     26 C         142.5441  143.5793  159.7934 C.ar    1  UNL1        0.1572
     27 N         142.9877  144.1896  158.4970 N.ar    1  UNL1       -0.1644
     28 N         141.8412  144.1138  157.5328 N.ar    1  UNL1       -0.2487
     29 C         141.8460  144.6083  156.1166 C.3     1  UNL1        0.1537
     30 C         140.6890  143.4568  158.2333 C.ar    1  UNL1        0.0796
     31 C         139.3004  143.1167  157.7795 C.ar    1  UNL1        0.0201
     32 C         138.3462  142.4462  158.7229 C.ar    1  UNL1        0.0162
     33 C         138.7807  142.1159  160.1201 C.ar    1  UNL1        0.0506
     34 C         140.1693  142.4560  160.5739 C.ar    1  UNL1        0.0179
     35 C         141.1234  143.1265  159.6305 C.ar    1  UNL1        0.0425
     36 C         145.7834  141.6360  163.4827 C.3     1  UNL1        0.0967
     37 C         144.8643  142.5522  162.7307 C.ar    1  UNL1        0.2270
     38 N         144.4444  143.9268  163.1600 N.ar    1  UNL1       -0.1113
     39 N         143.5242  144.4789  162.1119 N.ar    1  UNL1       -0.1055
     40 C         143.3753  143.4455  161.0349 C.ar    1  UNL1        0.2690
     41 O         144.2035  142.2548  161.4173 O.2     1  UNL1       -0.4182
@<TRIPOS>BOND
     1    36    37    1
     2    37    38   ar
     3    38    39   ar
     4    39    40   ar
     5    40    26    1
     6    26    27   ar
     7    27    28   ar
     8    28    29    1
     9    28    30   ar
    10    30    31   ar
    11    31    32   ar
    12    32    33   ar
    13    33    24    1
    14    24     1    1
    15     1     2   ar
    16     2     3   ar
    17     3     4   ar
    18     4     5   ar
    19     5     7    1
    20     7     8   ar
    21     8     9   ar
    22     9    13    1
    23    15    13    1
    24    15    16    1
    25    16    17    1
    26    17    18    1
    27    18    19    1
    28    19    20    1
    29    20    21    1
    30     9    10   ar
    31    10    11    1
    32    10    12   ar
    33     5     6   ar
    34    33    34   ar
    35    34    35   ar
    36    40    41   ar
    37    41    37   ar
    38    35    26   ar
    39    35    30   ar
    40     6     1   ar
    41    12     7   ar
    42    20    15    1
    43    24    25    1
    44    13    14    1
    45    21    22    1
    46    21    23    1
@<TRIPOS>MOLECULE
*****
 41 46 0 0 0
SMALL
GASTEIGER

@<TRIPOS>ATOM
      1 C         138.9367  143.2830  161.3571 C.ar    1  UNL1        0.2221
      2 N         139.0084  144.7334  161.7326 N.ar    1  UNL1       -0.2119
      3 C         139.1075  145.1306  163.1757 C.ar    1  UNL1        0.1050
      4 C         139.1350  144.0772  164.2432 C.ar    1  UNL1        0.0596
      5 C         139.0633  142.6268  163.8677 C.ar    1  UNL1        0.1683
      6 N         138.9642  142.2296  162.4247 N.ar    1  UNL1       -0.1944
      7 N         139.0908  141.5734  164.9353 N.ar    1  UNL1       -0.2096
      8 C         140.1186  141.4443  166.0202 C.ar    1  UNL1        0.1175
      9 C         139.7583  140.2553  166.8608 C.ar    1  UNL1        0.0796
     10 C         138.5079  139.6497  166.2954 C.ar    1  UNL1        0.0939
     11 C         137.7951  138.4415  166.8267 C.3     1  UNL1        0.0553
     12 N         138.0954  140.4643  165.1054 N.ar    1  UNL1       -0.1668
     13 N         140.5155  139.7591  168.0568 N.pl3   1  UNL1       -0.3306
     14 H         140.6595  138.7933  168.1823 H       1  UNL1        0.1469
     15 C         141.0533  140.7344  169.0616 C.3     1  UNL1        0.0884
     16 C         142.4644  141.2297  168.9453 C.3     1  UNL1        0.0530
     17 C         143.0022  142.2050  169.9501 C.3     1  UNL1        0.1440
     18 O         142.1289  142.6850  171.0712 O.3     1  UNL1       -0.3522
     19 C         140.7177  142.1897  171.1876 C.3     1  UNL1        0.1592
     20 C         140.1800  141.2144  170.1827 C.3     1  UNL1        0.0990
     21 N         138.7689  140.7192  170.2991 N.3     1  UNL1       -0.3189
     22 H         138.3249  141.1456  171.1124 H       1  UNL1        0.1189
     23 H         138.7724  139.7049  170.4064 H       1  UNL1        0.1189
     24 N         138.8376  142.8858  159.9140 N.pl3   1  UNL1       -0.2825
     25 H         138.1842  143.3284  159.3254 H       1  UNL1        0.1551
     26 C         141.8837  138.5363  160.3905 C.ar    1  UNL1        0.1572
     27 N         142.6506  137.7985  159.3334 N.ar    1  UNL1       -0.1644
     28 N         142.4299  138.5000  158.0260 N.ar    1  UNL1       -0.2487
     29 C         143.0105  138.1003  156.7020 C.3     1  UNL1        0.1537
     30 C         141.5266  139.6713  158.2751 C.ar    1  UNL1        0.0796
     31 C         140.9678  140.7203  157.3601 C.ar    1  UNL1        0.0201
     32 C         140.0715  141.7918  157.9064 C.ar    1  UNL1        0.0162
     33 C         139.7339  141.8143  159.3677 C.ar    1  UNL1        0.0506
     34 C         140.2927  140.7653  160.2828 C.ar    1  UNL1        0.0179
     35 C         141.1890  139.6938  159.7365 C.ar    1  UNL1        0.0425
     36 C         142.8715  138.4091  165.5759 C.3     1  UNL1        0.0967
     37 C         142.2763  138.1209  164.2297 C.ar    1  UNL1        0.2270
     38 N         141.1790  137.1393  163.9426 N.ar    1  UNL1       -0.1113
     39 N         140.8983  137.1755  162.4695 N.ar    1  UNL1       -0.1055
     40 C         141.8222  138.1794  161.8461 C.ar    1  UNL1        0.2690
     41 O         142.6738  138.7637  162.9339 O.2     1  UNL1       -0.4182
@<TRIPOS>BOND
     1    36    37    1
     2    37    38   ar
     3    38    39   ar
     4    39    40   ar
     5    40    26    1
     6    26    27   ar
     7    27    28   ar
     8    28    29    1
     9    28    30   ar
    10    30    31   ar
    11    31    32   ar
    12    32    33   ar
    13    33    24    1
    14    24     1    1
    15     1     2   ar
    16     2     3   ar
    17     3     4   ar
    18     4     5   ar
    19     5     7    1
    20     7     8   ar
    21     8     9   ar
    22     9    13    1
    23    15    13    1
    24    15    16    1
    25    16    17    1
    26    17    18    1
    27    18    19    1
    28    19    20    1
    29    20    21    1
    30     9    10   ar
    31    10    11    1
    32    10    12   ar
    33     5     6   ar
    34    33    34   ar
    35    34    35   ar
    36    40    41   ar
    37    41    37   ar
    38    35    26   ar
    39    35    30   ar
    40     6     1   ar
    41    12     7   ar
    42    20    15    1
    43    24    25    1
    44    13    14    1
    45    21    22    1
    46    21    23    1
