@<TRIPOS>MOLECULE
*****
 37 41 0 0 0
SMALL
GASTEIGER

@<TRIPOS>ATOM
      1 C         139.9919  139.4688  162.9895 C.ar    1  UNL1        0.0878
      2 C         138.8839  138.6212  163.5406 C.ar    1  UNL1        0.1543
      3 F         138.0804  137.7478  162.6232 F       1  UNL1       -0.2028
      4 C         138.5795  138.6468  165.0091 C.ar    1  UNL1        0.0356
      5 C         139.3831  139.5201  165.9265 C.ar    1  UNL1        0.0580
      6 C         139.0786  139.5458  167.3951 C.ar    1  UNL1        0.1996
      7 O         137.9706  138.6981  167.9463 O.2     1  UNL1       -0.2864
      8 C         139.8821  140.4191  168.3125 C.ar    1  UNL1        0.0701
      9 C         140.9902  141.2668  167.7613 C.ar    1  UNL1        0.0801
     10 N         141.2946  141.2411  166.2928 N.ar    1  UNL1       -0.3270
     11 C         140.4910  140.3678  165.3754 C.ar    1  UNL1        0.0750
     12 C         140.7955  140.3422  163.9069 C.ar    1  UNL1        0.0890
     13 CL        141.9035  141.1899  163.3557 Cl      1  UNL1       -0.0794
     14 C         141.1948  138.7972  159.3607 C.3     1  UNL1        0.0929
     15 C         140.3351  140.0102  159.1613 C.3     1  UNL1        0.0427
     16 C         139.7799  140.4094  160.4964 C.3     1  UNL1        0.0927
     17 N         140.2964  139.4432  161.5209 N.pl3   1  UNL1       -0.3033
     18 C         141.1708  138.4468  160.8190 C.3     1  UNL1        0.1104
     19 C         141.2030  137.4313  157.1507 C.2     1  UNL1        0.2245
     20 O         139.7079  137.5328  157.0824 O.2     1  UNL1       -0.2750
     21 N         141.9464  138.0635  158.2899 N.am    1  UNL1       -0.3042
     22 H         142.9276  137.9969  158.3347 H       1  UNL1        0.1494
     23 C         141.9546  136.6976  156.0798 C.3     1  UNL1        0.1113
     24 C         141.5703  135.2924  155.7223 C.3     1  UNL1        0.1366
     25 C         145.3280  132.4767  158.1370 C.3     1  UNL1        0.0540
     26 C         144.1314  132.8474  157.3120 C.ar    1  UNL1        0.0801
     27 C         143.2435  131.8941  156.5686 C.ar    1  UNL1        0.0308
     28 C         142.1760  132.6939  155.8826 C.ar    1  UNL1        0.0571
     29 C         141.0737  132.1428  155.0274 C.3     1  UNL1        0.0517
     30 N         142.4042  134.1416  156.2020 N.ar    1  UNL1       -0.2547
     31 N         143.6127  134.2364  157.0854 N.ar    1  UNL1       -0.1740
     32 C         139.5777  140.4448  169.7811 C.2     1  UNL1        0.0774
     33 O         140.1309  139.3793  170.6804 O.co2   1  UNL1       -0.5444
     34 O         138.7201  141.5359  170.3503 O.co2   1  UNL1       -0.5444
     35 C         142.4026  142.0888  165.7417 C.3     1  UNL1        0.0857
     36 C         143.8640  142.3128  165.4888 C.3     1  UNL1        0.0245
     37 C         142.8602  143.3330  165.0399 C.3     1  UNL1        0.0245
@<TRIPOS>UNITY_ATOM_ATTR
33 1
charge -1
@<TRIPOS>BOND
     1    25    26    1
     2    26    27   ar
     3    27    28   ar
     4    28    29    1
     5    28    30   ar
     6    30    24    1
     7    24    23    1
     8    23    19    1
     9    19    20    2
    10    19    21   am
    11    21    14    1
    12    14    15    1
    13    15    16    1
    14    16    17    1
    15    17     1    1
    16     1     2   ar
    17     2     3    1
    18     2     4   ar
    19     4     5   ar
    20     5     6   ar
    21     6     7    2
    22     6     8   ar
    23     8    32    1
    24    32    33   ar
    25    32    34   ar
    26     8     9   ar
    27     9    10   ar
    28    10    35    1
    29    35    36    1
    30    36    37    1
    31    10    11   ar
    32    11    12   ar
    33    12    13    1
    34    17    18    1
    35    30    31   ar
    36    31    26   ar
    37    18    14    1
    38    12     1   ar
    39    11     5   ar
    40    37    35    1
    41    21    22    1
@<TRIPOS>MOLECULE
*****
 37 41 0 0 0
SMALL
GASTEIGER

@<TRIPOS>ATOM
      1 C         142.9515  139.5693  164.1311 C.ar    1  UNL1        0.0878
      2 C         143.9831  139.1060  165.1165 C.ar    1  UNL1        0.1543
      3 F         145.3135  138.6104  164.6323 F       1  UNL1       -0.2028
      4 C         143.6843  139.1381  166.5860 C.ar    1  UNL1        0.0356
      5 C         142.3539  139.6337  167.0702 C.ar    1  UNL1        0.0580
      6 C         142.0551  139.6659  168.5399 C.ar    1  UNL1        0.1996
      7 O         143.0867  139.2025  169.5252 O.2     1  UNL1       -0.2864
      8 C         140.7247  140.1614  169.0240 C.ar    1  UNL1        0.0701
      9 C         139.6931  140.6248  168.0386 C.ar    1  UNL1        0.0801
     10 N         139.9919  140.5926  166.5690 N.ar    1  UNL1       -0.3270
     11 C         141.3223  140.0971  166.0848 C.ar    1  UNL1        0.0750
     12 C         141.6211  140.0649  164.6153 C.ar    1  UNL1        0.0890
     13 CL        140.5894  140.5283  163.6298 Cl      1  UNL1       -0.0794
     14 C         143.4262  138.7946  160.3575 C.3     1  UNL1        0.0929
     15 C         143.9937  140.1806  160.4425 C.3     1  UNL1        0.0427
     16 C         143.8850  140.6394  161.8664 C.3     1  UNL1        0.0927
     17 N         143.2503  139.5372  162.6615 N.pl3   1  UNL1       -0.3033
     18 C         142.9668  138.3970  161.7289 C.3     1  UNL1        0.1104
     19 C         142.0855  137.9762  158.2880 C.2     1  UNL1        0.2245
     20 O         140.9284  138.8391  158.6964 O.2     1  UNL1       -0.2750
     21 N         143.3344  137.9540  159.1186 N.am    1  UNL1       -0.3042
     22 H         144.0938  137.3876  158.8506 H       1  UNL1        0.1494
     23 C         141.9936  137.1355  157.0492 C.3     1  UNL1        0.1113
     24 C         143.2391  136.5744  156.4295 C.3     1  UNL1        0.1366
     25 C         144.4081  131.5035  157.3231 C.3     1  UNL1        0.0540
     26 C         143.9244  132.7613  156.6644 C.ar    1  UNL1        0.0801
     27 C         143.3053  132.8611  155.3018 C.ar    1  UNL1        0.0308
     28 C         142.9732  134.3017  155.0479 C.ar    1  UNL1        0.0571
     29 C         142.3386  134.8546  153.8063 C.3     1  UNL1        0.0517
     30 N         143.3871  135.0922  156.2536 N.ar    1  UNL1       -0.2547
     31 N         143.9750  134.1401  157.2526 N.ar    1  UNL1       -0.1740
     32 C         140.4259  140.1936  170.4936 C.2     1  UNL1        0.0774
     33 O         141.2556  141.0441  171.4092 O.co2   1  UNL1       -0.5444
     34 O         139.2973  139.3753  171.0476 O.co2   1  UNL1       -0.5444
     35 C         138.9602  141.0560  165.5836 C.3     1  UNL1        0.0857
     36 C         138.2814  142.1676  164.8396 C.3     1  UNL1        0.0245
     37 C         137.8522  140.7471  164.6209 C.3     1  UNL1        0.0245
@<TRIPOS>UNITY_ATOM_ATTR
33 1
charge -1
@<TRIPOS>BOND
     1    25    26    1
     2    26    27   ar
     3    27    28   ar
     4    28    29    1
     5    28    30   ar
     6    30    24    1
     7    24    23    1
     8    23    19    1
     9    19    20    2
    10    19    21   am
    11    21    14    1
    12    14    15    1
    13    15    16    1
    14    16    17    1
    15    17     1    1
    16     1     2   ar
    17     2     3    1
    18     2     4   ar
    19     4     5   ar
    20     5     6   ar
    21     6     7    2
    22     6     8   ar
    23     8    32    1
    24    32    33   ar
    25    32    34   ar
    26     8     9   ar
    27     9    10   ar
    28    10    35    1
    29    35    36    1
    30    36    37    1
    31    10    11   ar
    32    11    12   ar
    33    12    13    1
    34    17    18    1
    35    30    31   ar
    36    31    26   ar
    37    18    14    1
    38    12     1   ar
    39    11     5   ar
    40    37    35    1
    41    21    22    1
@<TRIPOS>MOLECULE
*****
 37 41 0 0 0
SMALL
GASTEIGER

@<TRIPOS>ATOM
      1 C         142.7623  141.5954  164.0519 C.ar    1  UNL1        0.0878
      2 C         143.8243  142.3193  164.8253 C.ar    1  UNL1        0.1543
      3 F         145.0307  142.8603  164.1169 F       1  UNL1       -0.2028
      4 C         143.6799  142.5021  166.3070 C.ar    1  UNL1        0.0356
      5 C         142.4735  141.9610  167.0155 C.ar    1  UNL1        0.0580
      6 C         142.3291  142.1438  168.4973 C.ar    1  UNL1        0.1996
      7 O         143.3911  142.8677  169.2707 O.2     1  UNL1       -0.2864
      8 C         141.1227  141.6028  169.2057 C.ar    1  UNL1        0.0701
      9 C         140.0607  140.8789  168.4323 C.ar    1  UNL1        0.0801
     10 N         140.2051  140.6961  166.9505 N.ar    1  UNL1       -0.3270
     11 C         141.4115  141.2371  166.2421 C.ar    1  UNL1        0.0750
     12 C         141.5559  141.0543  164.7603 C.ar    1  UNL1        0.0890
     13 CL        140.4939  140.3304  163.9869 Cl      1  UNL1       -0.0794
     14 C         143.3629  140.4270  160.3995 C.3     1  UNL1        0.0929
     15 C         142.8948  141.8352  160.1801 C.3     1  UNL1        0.0427
     16 C         142.6129  142.4442  161.5216 C.3     1  UNL1        0.0927
     17 N         142.9067  141.4125  162.5701 N.pl3   1  UNL1       -0.3033
     18 C         143.3702  140.1658  161.8766 C.3     1  UNL1        0.1104
     19 C         142.6975  138.7661  158.5157 C.2     1  UNL1        0.2245
     20 O         141.2482  139.0565  158.7716 O.2     1  UNL1       -0.2750
     21 N         143.7548  139.4514  159.3297 N.am    1  UNL1       -0.3042
     22 H         144.7059  139.2609  159.1617 H       1  UNL1        0.1494
     23 C         143.0894  137.7905  157.4458 C.3     1  UNL1        0.1113
     24 C         142.2892  136.5381  157.2433 C.3     1  UNL1        0.1366
     25 C         144.9457  132.0259  157.9237 C.3     1  UNL1        0.0540
     26 C         144.2077  133.1643  157.2839 C.ar    1  UNL1        0.0801
     27 C         143.9120  133.3120  155.8208 C.ar    1  UNL1        0.0308
     28 C         143.1573  134.5938  155.6275 C.ar    1  UNL1        0.0571
     29 C         142.6605  135.1359  154.3201 C.3     1  UNL1        0.0517
     30 N         142.9866  135.2383  156.9711 N.ar    1  UNL1       -0.2547
     31 N         143.6358  134.3548  157.9948 N.ar    1  UNL1       -0.1740
     32 C         140.9783  141.7856  170.6875 C.2     1  UNL1        0.0774
     33 O         141.8422  140.9987  171.6280 O.co2   1  UNL1       -0.5444
     34 O         139.9700  142.7553  171.2288 O.co2   1  UNL1       -0.5444
     35 C         139.1431  139.9722  166.1772 C.3     1  UNL1        0.0857
     36 C         138.4293  138.6997  165.8288 C.3     1  UNL1        0.0245
     37 C         138.0174  139.9908  165.1860 C.3     1  UNL1        0.0245
@<TRIPOS>UNITY_ATOM_ATTR
33 1
charge -1
@<TRIPOS>BOND
     1    25    26    1
     2    26    27   ar
     3    27    28   ar
     4    28    29    1
     5    28    30   ar
     6    30    24    1
     7    24    23    1
     8    23    19    1
     9    19    20    2
    10    19    21   am
    11    21    14    1
    12    14    15    1
    13    15    16    1
    14    16    17    1
    15    17     1    1
    16     1     2   ar
    17     2     3    1
    18     2     4   ar
    19     4     5   ar
    20     5     6   ar
    21     6     7    2
    22     6     8   ar
    23     8    32    1
    24    32    33   ar
    25    32    34   ar
    26     8     9   ar
    27     9    10   ar
    28    10    35    1
    29    35    36    1
    30    36    37    1
    31    10    11   ar
    32    11    12   ar
    33    12    13    1
    34    17    18    1
    35    30    31   ar
    36    31    26   ar
    37    18    14    1
    38    12     1   ar
    39    11     5   ar
    40    37    35    1
    41    21    22    1
@<TRIPOS>MOLECULE
*****
 37 41 0 0 0
SMALL
GASTEIGER

@<TRIPOS>ATOM
      1 C         140.5870  139.5929  164.2902 C.ar    1  UNL1        0.0878
      2 C         141.2547  138.6605  165.2570 C.ar    1  UNL1        0.1543
      3 F         141.6412  137.2784  164.8207 F       1  UNL1       -0.2028
      4 C         141.5358  139.1103  166.6600 C.ar    1  UNL1        0.0356
      5 C         141.1493  140.4924  167.0963 C.ar    1  UNL1        0.0580
      6 C         141.4305  140.9421  168.4994 C.ar    1  UNL1        0.1996
      7 O         142.0982  140.0097  169.4662 O.2     1  UNL1       -0.2864
      8 C         141.0440  142.3242  168.9357 C.ar    1  UNL1        0.0701
      9 C         140.3763  143.2566  167.9688 C.ar    1  UNL1        0.0801
     10 N         140.0951  142.8069  166.5658 N.ar    1  UNL1       -0.3270
     11 C         140.4816  141.4248  166.1295 C.ar    1  UNL1        0.0750
     12 C         140.2004  140.9751  164.7264 C.ar    1  UNL1        0.0890
     13 CL        139.5327  141.9075  163.7595 Cl      1  UNL1       -0.0794
     14 C         140.5368  138.7226  160.5079 C.3     1  UNL1        0.0929
     15 C         139.2094  138.1799  160.9478 C.3     1  UNL1        0.0427
     16 C         139.0666  138.4399  162.4182 C.3     1  UNL1        0.0927
     17 N         140.3057  139.1432  162.8870 N.pl3   1  UNL1       -0.3033
     18 C         141.2144  139.3179  161.7064 C.3     1  UNL1        0.1104
     19 C         142.3336  137.8907  158.8257 C.2     1  UNL1        0.2245
     20 O         143.0248  137.1486  159.9310 O.2     1  UNL1       -0.2750
     21 N         141.0896  138.6777  159.1142 N.am    1  UNL1       -0.3042
     22 H         140.6359  139.1648  158.3888 H       1  UNL1        0.1494
     23 C         142.8863  137.8458  157.4320 C.3     1  UNL1        0.1113
     24 C         142.3429  136.8596  156.4410 C.3     1  UNL1        0.1366
     25 C         144.7547  132.3478  157.7470 C.3     1  UNL1        0.0540
     26 C         144.0262  133.4022  156.9677 C.ar    1  UNL1        0.0801
     27 C         143.5779  133.2919  155.5406 C.ar    1  UNL1        0.0308
     28 C         142.8928  134.5736  155.1695 C.ar    1  UNL1        0.0571
     29 C         142.2888  134.8962  153.8349 C.3     1  UNL1        0.0517
     30 N         142.9176  135.4761  156.3674 N.ar    1  UNL1       -0.2547
     31 N         143.6182  134.7521  157.4787 N.ar    1  UNL1       -0.1740
     32 C         141.3252  142.7739  170.3388 C.2     1  UNL1        0.0774
     33 O         142.6165  143.4662  170.6599 O.co2   1  UNL1       -0.5444
     34 O         140.3150  142.5314  171.4208 O.co2   1  UNL1       -0.5444
     35 C         139.4274  143.7393  165.5989 C.3     1  UNL1        0.0857
     36 C         138.1777  144.3284  165.0147 C.3     1  UNL1        0.0245
     37 C         139.5205  144.7652  164.5086 C.3     1  UNL1        0.0245
@<TRIPOS>UNITY_ATOM_ATTR
33 1
charge -1
@<TRIPOS>BOND
     1    25    26    1
     2    26    27   ar
     3    27    28   ar
     4    28    29    1
     5    28    30   ar
     6    30    24    1
     7    24    23    1
     8    23    19    1
     9    19    20    2
    10    19    21   am
    11    21    14    1
    12    14    15    1
    13    15    16    1
    14    16    17    1
    15    17     1    1
    16     1     2   ar
    17     2     3    1
    18     2     4   ar
    19     4     5   ar
    20     5     6   ar
    21     6     7    2
    22     6     8   ar
    23     8    32    1
    24    32    33   ar
    25    32    34   ar
    26     8     9   ar
    27     9    10   ar
    28    10    35    1
    29    35    36    1
    30    36    37    1
    31    10    11   ar
    32    11    12   ar
    33    12    13    1
    34    17    18    1
    35    30    31   ar
    36    31    26   ar
    37    18    14    1
    38    12     1   ar
    39    11     5   ar
    40    37    35    1
    41    21    22    1
@<TRIPOS>MOLECULE
*****
 37 41 0 0 0
SMALL
GASTEIGER

@<TRIPOS>ATOM
      1 C         142.9985  142.2573  163.5317 C.ar    1  UNL1        0.0878
      2 C         143.6331  143.2957  164.4085 C.ar    1  UNL1        0.1543
      3 F         144.2489  144.5191  163.7970 F       1  UNL1       -0.2028
      4 C         143.6520  143.1106  165.8969 C.ar    1  UNL1        0.0356
      5 C         143.0362  141.8871  166.5084 C.ar    1  UNL1        0.0580
      6 C         143.0551  141.7021  167.9969 C.ar    1  UNL1        0.1996
      7 O         143.6897  142.7404  168.8738 O.2     1  UNL1       -0.2864
      8 C         142.4393  140.4786  168.6084 C.ar    1  UNL1        0.0701
      9 C         141.8046  139.4402  167.7315 C.ar    1  UNL1        0.0801
     10 N         141.7858  139.6253  166.2431 N.ar    1  UNL1       -0.3270
     11 C         142.4015  140.8488  165.6316 C.ar    1  UNL1        0.0750
     12 C         142.3827  141.0338  164.1432 C.ar    1  UNL1        0.0890
     13 CL        141.7480  139.9954  163.2662 Cl      1  UNL1       -0.0794
     14 C         143.6992  142.6821  159.7377 C.3     1  UNL1        0.0929
     15 C         142.2021  142.7721  159.7678 C.3     1  UNL1        0.0427
     16 C         141.7575  142.6240  161.1927 C.3     1  UNL1        0.0927
     17 N         142.9796  142.4424  162.0432 N.pl3   1  UNL1       -0.3033
     18 C         144.1796  142.4783  161.1439 C.3     1  UNL1        0.1104
     19 C         144.9195  141.5400  157.7486 C.2     1  UNL1        0.2245
     20 O         144.4104  140.2042  158.2033 O.2     1  UNL1       -0.2750
     21 N         144.5638  142.7789  158.5158 N.am    1  UNL1       -0.3042
     22 H         144.8979  143.6556  158.2174 H       1  UNL1        0.1494
     23 C         145.7841  141.6368  156.5267 C.3     1  UNL1        0.1113
     24 C         147.0098  142.5013  156.5419 C.3     1  UNL1        0.1366
     25 C         151.3018  141.0286  153.8419 C.3     1  UNL1        0.0540
     26 C         150.0084  141.6904  154.2146 C.ar    1  UNL1        0.0801
     27 C         149.2196  142.6320  153.3537 C.ar    1  UNL1        0.0308
     28 C         148.0004  143.0504  154.1207 C.ar    1  UNL1        0.0571
     29 C         146.9332  143.9874  153.6375 C.3     1  UNL1        0.0517
     30 N         148.0356  142.3674  155.4556 N.ar    1  UNL1       -0.2547
     31 N         149.2766  141.5268  155.5137 N.ar    1  UNL1       -0.1740
     32 C         142.4581  140.2935  170.0968 C.2     1  UNL1        0.0774
     33 O         141.3401  140.8394  170.9347 O.co2   1  UNL1       -0.5444
     34 O         143.5951  139.5625  170.7474 O.co2   1  UNL1       -0.5444
     35 C         141.1511  138.5869  165.3662 C.3     1  UNL1        0.0857
     36 C         139.9386  138.0308  164.6802 C.3     1  UNL1        0.0245
     37 C         141.2643  137.3445  164.5334 C.3     1  UNL1        0.0245
@<TRIPOS>UNITY_ATOM_ATTR
33 1
charge -1
@<TRIPOS>BOND
     1    25    26    1
     2    26    27   ar
     3    27    28   ar
     4    28    29    1
     5    28    30   ar
     6    30    24    1
     7    24    23    1
     8    23    19    1
     9    19    20    2
    10    19    21   am
    11    21    14    1
    12    14    15    1
    13    15    16    1
    14    16    17    1
    15    17     1    1
    16     1     2   ar
    17     2     3    1
    18     2     4   ar
    19     4     5   ar
    20     5     6   ar
    21     6     7    2
    22     6     8   ar
    23     8    32    1
    24    32    33   ar
    25    32    34   ar
    26     8     9   ar
    27     9    10   ar
    28    10    35    1
    29    35    36    1
    30    36    37    1
    31    10    11   ar
    32    11    12   ar
    33    12    13    1
    34    17    18    1
    35    30    31   ar
    36    31    26   ar
    37    18    14    1
    38    12     1   ar
    39    11     5   ar
    40    37    35    1
    41    21    22    1
@<TRIPOS>MOLECULE
*****
 37 41 0 0 0
SMALL
GASTEIGER

@<TRIPOS>ATOM
      1 C         142.8566  141.9072  164.5438 C.ar    1  UNL1        0.0878
      2 C         143.7343  142.5814  165.5562 C.ar    1  UNL1        0.1543
      3 F         144.9473  143.3422  165.1091 F       1  UNL1       -0.2028
      4 C         143.3991  142.4948  167.0156 C.ar    1  UNL1        0.0356
      5 C         142.1861  141.7340  167.4627 C.ar    1  UNL1        0.0580
      6 C         141.8508  141.6475  168.9222 C.ar    1  UNL1        0.1996
      7 O         142.7285  142.3217  169.9346 O.2     1  UNL1       -0.2864
      8 C         140.6378  140.8867  169.3693 C.ar    1  UNL1        0.0701
      9 C         139.7601  140.2125  168.3568 C.ar    1  UNL1        0.0801
     10 N         140.0953  140.2991  166.8973 N.ar    1  UNL1       -0.3270
     11 C         141.3083  141.0599  166.4503 C.ar    1  UNL1        0.0750
     12 C         141.6436  141.1465  164.9908 C.ar    1  UNL1        0.0890
     13 CL        140.7658  140.4722  163.9783 Cl      1  UNL1       -0.0794
     14 C         143.3762  142.7989  160.8020 C.3     1  UNL1        0.0929
     15 C         144.0392  141.4553  160.8746 C.3     1  UNL1        0.0427
     16 C         143.9253  140.9578  162.2851 C.3     1  UNL1        0.0927
     17 N         143.1918  141.9938  163.0842 N.pl3   1  UNL1       -0.3033
     18 C         142.8525  143.1317  162.1676 C.3     1  UNL1        0.1104
     19 C         141.9687  143.6991  158.8123 C.2     1  UNL1        0.2245
     20 O         140.7983  142.8798  159.2696 O.2     1  UNL1       -0.2750
     21 N         143.2577  143.6586  159.5786 N.am    1  UNL1       -0.3042
     22 H         144.0258  144.1963  159.2785 H       1  UNL1        0.1494
     23 C         141.8502  144.5589  157.5889 C.3     1  UNL1        0.1113
     24 C         140.7228  145.5410  157.4688 C.3     1  UNL1        0.1366
     25 C         136.7276  142.9941  155.1381 C.3     1  UNL1        0.0540
     26 C         137.7124  144.0603  155.5169 C.ar    1  UNL1        0.0801
     27 C         137.7718  145.4475  154.9493 C.ar    1  UNL1        0.0308
     28 C         138.9067  146.1710  155.6114 C.ar    1  UNL1        0.0571
     29 C         139.3260  147.5861  155.3438 C.3     1  UNL1        0.0517
     30 N         139.5488  145.2310  156.5882 N.ar    1  UNL1       -0.2547
     31 N         138.8106  143.9265  156.5297 N.ar    1  UNL1       -0.1740
     32 C         140.3025  140.8001  170.8287 C.2     1  UNL1        0.0774
     33 O         139.7210  139.5369  171.3910 O.co2   1  UNL1       -0.5444
     34 O         140.5488  141.9767  171.7260 O.co2   1  UNL1       -0.5444
     35 C         139.2176  139.6249  165.8849 C.3     1  UNL1        0.0857
     36 C         138.0921  139.6863  164.8952 C.3     1  UNL1        0.0245
     37 C         138.8227  138.3959  165.1211 C.3     1  UNL1        0.0245
@<TRIPOS>UNITY_ATOM_ATTR
33 1
charge -1
@<TRIPOS>BOND
     1    25    26    1
     2    26    27   ar
     3    27    28   ar
     4    28    29    1
     5    28    30   ar
     6    30    24    1
     7    24    23    1
     8    23    19    1
     9    19    20    2
    10    19    21   am
    11    21    14    1
    12    14    15    1
    13    15    16    1
    14    16    17    1
    15    17     1    1
    16     1     2   ar
    17     2     3    1
    18     2     4   ar
    19     4     5   ar
    20     5     6   ar
    21     6     7    2
    22     6     8   ar
    23     8    32    1
    24    32    33   ar
    25    32    34   ar
    26     8     9   ar
    27     9    10   ar
    28    10    35    1
    29    35    36    1
    30    36    37    1
    31    10    11   ar
    32    11    12   ar
    33    12    13    1
    34    17    18    1
    35    30    31   ar
    36    31    26   ar
    37    18    14    1
    38    12     1   ar
    39    11     5   ar
    40    37    35    1
    41    21    22    1
@<TRIPOS>MOLECULE
*****
 37 41 0 0 0
SMALL
GASTEIGER

@<TRIPOS>ATOM
      1 C         140.0957  139.8650  164.3344 C.ar    1  UNL1        0.0878
      2 C         139.2162  139.2201  165.3642 C.ar    1  UNL1        0.1543
      3 F         138.1074  138.3048  164.9366 F       1  UNL1       -0.2028
      4 C         139.4455  139.4906  166.8217 C.ar    1  UNL1        0.0356
      5 C         140.5542  140.4059  167.2493 C.ar    1  UNL1        0.0580
      6 C         140.7835  140.6764  168.7068 C.ar    1  UNL1        0.1996
      7 O         139.9040  140.0316  169.7367 O.2     1  UNL1       -0.2864
      8 C         141.8923  141.5917  169.1344 C.ar    1  UNL1        0.0701
      9 C         142.7718  142.2365  168.1045 C.ar    1  UNL1        0.0801
     10 N         142.5425  141.9661  166.6470 N.ar    1  UNL1       -0.3270
     11 C         141.4337  141.0508  166.2194 C.ar    1  UNL1        0.0750
     12 C         141.2044  140.7803  164.7620 C.ar    1  UNL1        0.0890
     13 CL        142.0840  141.4251  163.7320 Cl      1  UNL1       -0.0794
     14 C         138.9971  139.7219  160.6143 C.3     1  UNL1        0.0929
     15 C         140.0301  138.6349  160.6536 C.3     1  UNL1        0.0427
     16 C         140.5673  138.5562  162.0518 C.3     1  UNL1        0.0927
     17 N         139.8664  139.5945  162.8768 N.pl3   1  UNL1       -0.3033
     18 C         138.8960  140.3150  161.9884 C.3     1  UNL1        0.1104
     19 C         138.5800  141.3866  158.6637 C.2     1  UNL1        0.2245
     20 O         139.7482  142.2110  159.1175 O.2     1  UNL1       -0.2750
     21 N         138.2045  140.1420  159.4122 N.am    1  UNL1       -0.3042
     22 H         137.4378  139.6010  159.1144 H       1  UNL1        0.1494
     23 C         137.7874  141.8067  157.4615 C.3     1  UNL1        0.1113
     24 C         137.2498  140.7715  156.5184 C.3     1  UNL1        0.1366
     25 C         132.0791  139.7171  156.6978 C.3     1  UNL1        0.0540
     26 C         133.4101  140.2609  156.2706 C.ar    1  UNL1        0.0801
     27 C         133.6611  141.1502  155.0891 C.ar    1  UNL1        0.0308
     28 C         135.1300  141.4498  155.0381 C.ar    1  UNL1        0.0571
     29 C         135.8208  142.3036  154.0164 C.3     1  UNL1        0.0517
     30 N         135.7868  140.7455  156.1881 N.ar    1  UNL1       -0.2547
     31 N         134.7239  140.0108  156.9498 N.ar    1  UNL1       -0.1740
     32 C         142.1216  141.8622  170.5919 C.2     1  UNL1        0.0774
     33 O         142.3490  143.2665  171.0674 O.co2   1  UNL1       -0.5444
     34 O         142.1234  140.7283  171.5739 O.co2   1  UNL1       -0.5444
     35 C         143.4220  142.6109  165.6172 C.3     1  UNL1        0.0857
     36 C         144.6342  142.5698  164.7346 C.3     1  UNL1        0.0245
     37 C         143.7332  143.7688  164.7159 C.3     1  UNL1        0.0245
@<TRIPOS>UNITY_ATOM_ATTR
33 1
charge -1
@<TRIPOS>BOND
     1    25    26    1
     2    26    27   ar
     3    27    28   ar
     4    28    29    1
     5    28    30   ar
     6    30    24    1
     7    24    23    1
     8    23    19    1
     9    19    20    2
    10    19    21   am
    11    21    14    1
    12    14    15    1
    13    15    16    1
    14    16    17    1
    15    17     1    1
    16     1     2   ar
    17     2     3    1
    18     2     4   ar
    19     4     5   ar
    20     5     6   ar
    21     6     7    2
    22     6     8   ar
    23     8    32    1
    24    32    33   ar
    25    32    34   ar
    26     8     9   ar
    27     9    10   ar
    28    10    35    1
    29    35    36    1
    30    36    37    1
    31    10    11   ar
    32    11    12   ar
    33    12    13    1
    34    17    18    1
    35    30    31   ar
    36    31    26   ar
    37    18    14    1
    38    12     1   ar
    39    11     5   ar
    40    37    35    1
    41    21    22    1
@<TRIPOS>MOLECULE
*****
 37 41 0 0 0
SMALL
GASTEIGER

@<TRIPOS>ATOM
      1 C         140.9921  139.7509  164.1398 C.ar    1  UNL1        0.0878
      2 C         141.6907  138.8142  165.0802 C.ar    1  UNL1        0.1543
      3 F         142.1832  137.4858  164.5874 F       1  UNL1       -0.2028
      4 C         141.8969  139.2059  166.5133 C.ar    1  UNL1        0.0356
      5 C         141.4045  140.5343  167.0061 C.ar    1  UNL1        0.0580
      6 C         141.6108  140.9259  168.4394 C.ar    1  UNL1        0.1996
      7 O         142.3094  139.9892  169.3798 O.2     1  UNL1       -0.2864
      8 C         141.1184  142.2543  168.9321 C.ar    1  UNL1        0.0701
      9 C         140.4197  143.1911  167.9917 C.ar    1  UNL1        0.0801
     10 N         140.2135  142.7994  166.5585 N.ar    1  UNL1       -0.3270
     11 C         140.7059  141.4710  166.0657 C.ar    1  UNL1        0.0750
     12 C         140.4997  141.0794  164.6325 C.ar    1  UNL1        0.0890
     13 CL        139.8010  142.0161  163.6921 Cl      1  UNL1       -0.0794
     14 C         141.0493  139.1866  160.2999 C.3     1  UNL1        0.0929
     15 C         139.8879  138.3267  160.7021 C.3     1  UNL1        0.0427
     16 C         139.7251  138.4334  162.1894 C.3     1  UNL1        0.0927
     17 N         140.7859  139.3593  162.7065 N.pl3   1  UNL1       -0.3033
     18 C         141.6043  139.8248  161.5388 C.3     1  UNL1        0.1104
     19 C         142.6026  138.4412  158.3553 C.2     1  UNL1        0.2245
     20 O         143.1243  137.3185  159.2025 O.2     1  UNL1       -0.2750
     21 N         141.5651  139.3753  158.9041 N.am    1  UNL1       -0.3042
     22 H         141.2228  140.1121  158.3482 H       1  UNL1        0.1494
     23 C         143.1185  138.6298  156.9595 C.3     1  UNL1        0.1113
     24 C         143.1913  140.0057  156.3664 C.3     1  UNL1        0.1366
     25 C         147.9963  141.8980  155.2658 C.3     1  UNL1        0.0540
     26 C         146.6767  141.6589  155.9378 C.ar    1  UNL1        0.0801
     27 C         146.1891  142.3303  157.1873 C.ar    1  UNL1        0.0308
     28 C         144.8241  141.7927  157.5000 C.ar    1  UNL1        0.0571
     29 C         143.9658  142.1892  158.6645 C.3     1  UNL1        0.0517
     30 N         144.4681  140.7891  156.4436 N.ar    1  UNL1       -0.2547
     31 N         145.6131  140.7064  155.4782 N.ar    1  UNL1       -0.1740
     32 C         141.3246  142.6460  170.3653 C.2     1  UNL1        0.0774
     33 O         140.2851  142.3075  171.3924 O.co2   1  UNL1       -0.5444
     34 O         142.5703  143.3763  170.7715 O.co2   1  UNL1       -0.5444
     35 C         139.5149  143.7362  165.6181 C.3     1  UNL1        0.0857
     36 C         139.5735  144.7956  164.5578 C.3     1  UNL1        0.0245
     37 C         138.2462  144.2993  165.0495 C.3     1  UNL1        0.0245
@<TRIPOS>UNITY_ATOM_ATTR
33 1
charge -1
@<TRIPOS>BOND
     1    25    26    1
     2    26    27   ar
     3    27    28   ar
     4    28    29    1
     5    28    30   ar
     6    30    24    1
     7    24    23    1
     8    23    19    1
     9    19    20    2
    10    19    21   am
    11    21    14    1
    12    14    15    1
    13    15    16    1
    14    16    17    1
    15    17     1    1
    16     1     2   ar
    17     2     3    1
    18     2     4   ar
    19     4     5   ar
    20     5     6   ar
    21     6     7    2
    22     6     8   ar
    23     8    32    1
    24    32    33   ar
    25    32    34   ar
    26     8     9   ar
    27     9    10   ar
    28    10    35    1
    29    35    36    1
    30    36    37    1
    31    10    11   ar
    32    11    12   ar
    33    12    13    1
    34    17    18    1
    35    30    31   ar
    36    31    26   ar
    37    18    14    1
    38    12     1   ar
    39    11     5   ar
    40    37    35    1
    41    21    22    1
@<TRIPOS>MOLECULE
*****
 37 41 0 0 0
SMALL
GASTEIGER

@<TRIPOS>ATOM
      1 C         140.1016  139.5262  164.2807 C.ar    1  UNL1        0.0878
      2 C         139.0822  138.7909  165.0992 C.ar    1  UNL1        0.1543
      3 F         138.2293  137.7341  164.4621 F       1  UNL1       -0.2028
      4 C         138.9155  139.1124  166.5548 C.ar    1  UNL1        0.0356
      5 C         139.7683  140.1692  167.1919 C.ar    1  UNL1        0.0580
      6 C         139.6016  140.4907  168.6476 C.ar    1  UNL1        0.1996
      7 O         138.5821  139.7554  169.4661 O.2     1  UNL1       -0.2864
      8 C         140.4544  141.5475  169.2847 C.ar    1  UNL1        0.0701
      9 C         141.4739  142.2828  168.4661 C.ar    1  UNL1        0.0801
     10 N         141.6406  141.9613  167.0105 N.ar    1  UNL1       -0.3270
     11 C         140.7878  140.9045  166.3734 C.ar    1  UNL1        0.0750
     12 C         140.9545  140.5830  164.9178 C.ar    1  UNL1        0.0890
     13 CL        141.9740  141.3183  164.0993 Cl      1  UNL1       -0.0794
     14 C         140.2022  139.3625  160.4040 C.3     1  UNL1        0.0929
     15 C         140.8475  138.0576  160.7661 C.3     1  UNL1        0.0427
     16 C         140.8883  137.9601  162.2624 C.3     1  UNL1        0.0927
     17 N         140.2683  139.2047  162.8251 N.pl3   1  UNL1       -0.3033
     18 C         139.8443  140.0714  161.6765 C.3     1  UNL1        0.1104
     19 C         138.5550  140.1001  158.5351 C.2     1  UNL1        0.2245
     20 O         137.3966  139.8239  159.4472 O.2     1  UNL1       -0.2750
     21 N         139.9579  139.8694  159.0136 N.am    1  UNL1       -0.3042
     22 H         140.7182  140.0507  158.4150 H       1  UNL1        0.1494
     23 C         138.3107  140.6070  157.1447 C.3     1  UNL1        0.1113
     24 C         139.2548  140.2436  156.0372 C.3     1  UNL1        0.1366
     25 C         142.1390  135.8367  156.4113 C.3     1  UNL1        0.0540
     26 C         141.0461  136.8004  156.0554 C.ar    1  UNL1        0.0801
     27 C         139.8274  136.4888  155.2383 C.ar    1  UNL1        0.0308
     28 C         139.0080  137.7407  155.1320 C.ar    1  UNL1        0.0571
     29 C         137.7051  137.8824  154.4024 C.3     1  UNL1        0.0517
     30 N         139.7203  138.8260  155.8834 N.ar    1  UNL1       -0.2547
     31 N         140.9799  138.2448  156.4541 N.ar    1  UNL1       -0.1740
     32 C         140.2877  141.8690  170.7403 C.2     1  UNL1        0.0774
     33 O         139.5618  143.1144  171.1550 O.co2   1  UNL1       -0.5444
     34 O         140.8470  140.9451  171.7813 O.co2   1  UNL1       -0.5444
     35 C         142.6601  142.6966  166.1920 C.3     1  UNL1        0.0857
     36 C         144.0910  142.9443  165.8163 C.3     1  UNL1        0.0245
     37 C         142.9951  143.7223  165.1502 C.3     1  UNL1        0.0245
@<TRIPOS>UNITY_ATOM_ATTR
33 1
charge -1
@<TRIPOS>BOND
     1    25    26    1
     2    26    27   ar
     3    27    28   ar
     4    28    29    1
     5    28    30   ar
     6    30    24    1
     7    24    23    1
     8    23    19    1
     9    19    20    2
    10    19    21   am
    11    21    14    1
    12    14    15    1
    13    15    16    1
    14    16    17    1
    15    17     1    1
    16     1     2   ar
    17     2     3    1
    18     2     4   ar
    19     4     5   ar
    20     5     6   ar
    21     6     7    2
    22     6     8   ar
    23     8    32    1
    24    32    33   ar
    25    32    34   ar
    26     8     9   ar
    27     9    10   ar
    28    10    35    1
    29    35    36    1
    30    36    37    1
    31    10    11   ar
    32    11    12   ar
    33    12    13    1
    34    17    18    1
    35    30    31   ar
    36    31    26   ar
    37    18    14    1
    38    12     1   ar
    39    11     5   ar
    40    37    35    1
    41    21    22    1
