@<TRIPOS>MOLECULE
*****
 34 38 0 0 0
SMALL
GASTEIGER

@<TRIPOS>ATOM
      1 C         141.6243  145.4016  159.0845 C.3     1  UNL1        0.0730
      2 N         141.2866  145.0194  160.4951 N.3     1  UNL1       -0.2720
      3 C         140.0378  145.6339  161.0547 C.3     1  UNL1        0.0768
      4 C         139.4363  145.4539  162.4171 C.3     1  UNL1        0.0433
      5 C         139.9350  144.6152  163.5561 C.ar    1  UNL1       -0.0247
      6 C         139.0309  144.7172  164.7487 C.ar    1  UNL1       -0.0045
      7 C         139.3501  143.9532  165.9995 C.ar    1  UNL1        0.0013
      8 C         140.5734  143.0871  166.0577 C.ar    1  UNL1        0.0206
      9 C         141.4776  142.9851  164.8652 C.ar    1  UNL1       -0.0029
     10 C         141.1584  143.7491  163.6144 C.ar    1  UNL1       -0.0246
     11 C         142.1852  143.5079  162.5479 C.3     1  UNL1        0.0433
     12 C         142.2422  144.0733  161.1596 C.3     1  UNL1        0.0768
     13 C         140.8926  142.3231  167.3085 C.ar    1  UNL1        0.1227
     14 C         141.6832  141.0508  167.3869 C.ar    1  UNL1        0.0580
     15 C         141.7564  140.6386  168.8273 C.ar    1  UNL1        0.1548
     16 C         142.4527  139.4224  169.3620 C.3     1  UNL1        0.0754
     17 O         141.0111  141.6562  169.6391 O.2     1  UNL1       -0.3578
     18 N         140.4772  142.6973  168.7005 N.ar    1  UNL1       -0.0774
     19 C         142.2357  144.3914  158.1596 C.3     1  UNL1        0.0294
     20 C         141.3764  143.6676  157.1657 C.3     1  UNL1        0.0666
     21 S         140.6985  142.3867  157.5526 S.3     1  UNL1       -0.0756
     22 C         139.0790  141.7570  161.0234 C.ar    1  UNL1        0.1668
     23 N         138.0920  142.7061  160.4109 N.ar    1  UNL1       -0.1282
     24 N         138.5786  143.0575  159.0362 N.ar    1  UNL1       -0.1221
     25 C         139.8663  142.3256  158.7991 C.ar    1  UNL1        0.1932
     26 N         140.1755  141.5219  160.0272 N.ar    1  UNL1       -0.2884
     27 C         141.3714  140.6381  160.2246 C.3     1  UNL1        0.1340
     28 C         138.7063  139.3278  166.4970 C.3     1  UNL1        0.0310
     29 C         138.7995  139.9351  165.1286 C.ar    1  UNL1       -0.0218
     30 C         137.7373  140.8822  164.6544 C.ar    1  UNL1       -0.0042
     31 C         137.8305  141.4895  163.2860 C.ar    1  UNL1        0.0027
     32 C         138.9859  141.1497  162.3917 C.ar    1  UNL1        0.0359
     33 C         140.0480  140.2027  162.8660 C.ar    1  UNL1        0.0027
     34 C         139.9548  139.5954  164.2344 C.ar    1  UNL1       -0.0042
@<TRIPOS>BOND
     1    28    29    1
     2    29    30   ar
     3    30    31   ar
     4    31    32   ar
     5    32    22    1
     6    22    23   ar
     7    23    24   ar
     8    24    25   ar
     9    25    21    1
    10    21    20    1
    11    20    19    1
    12    19     1    1
    13     1     2    1
    14     2     3    1
    15     3     4    1
    16     4     5    1
    17     5     6   ar
    18     6     7   ar
    19     7     8   ar
    20     8    13    1
    21    13    14   ar
    22    14    15   ar
    23    15    16    1
    24    15    17   ar
    25    17    18   ar
    26     8     9   ar
    27     9    10   ar
    28    10    11    1
    29    11    12    1
    30    25    26   ar
    31    26    27    1
    32    32    33   ar
    33    33    34   ar
    34    34    29   ar
    35    26    22   ar
    36    12     2    1
    37    10     5   ar
    38    18    13   ar
@<TRIPOS>MOLECULE
*****
 34 38 0 0 0
SMALL
GASTEIGER

@<TRIPOS>ATOM
      1 C         138.5128  142.4257  159.7643 C.3     1  UNL1        0.0730
      2 N         138.6176  141.8252  161.1349 N.3     1  UNL1       -0.2720
      3 C         138.2717  140.3690  161.2355 C.3     1  UNL1        0.0768
      4 C         138.2772  139.4883  162.4497 C.3     1  UNL1        0.0433
      5 C         138.6298  139.8461  163.8630 C.ar    1  UNL1       -0.0247
      6 C         138.5034  138.6625  164.7758 C.ar    1  UNL1       -0.0045
      7 C         138.8112  138.8059  166.2369 C.ar    1  UNL1        0.0013
      8 C         139.2455  140.1328  166.7852 C.ar    1  UNL1        0.0206
      9 C         139.3720  141.3164  165.8724 C.ar    1  UNL1       -0.0029
     10 C         139.0641  141.1730  164.4113 C.ar    1  UNL1       -0.0246
     11 C         139.2530  142.4699  163.6817 C.3     1  UNL1        0.0433
     12 C         139.0543  142.7601  162.2235 C.3     1  UNL1        0.0768
     13 C         139.5534  140.2762  168.2463 C.ar    1  UNL1        0.1227
     14 C         140.7003  141.0433  168.8345 C.ar    1  UNL1        0.0580
     15 C         140.6241  140.9188  170.3274 C.ar    1  UNL1        0.1548
     16 C         141.5750  141.5310  171.3128 C.3     1  UNL1        0.0754
     17 O         139.4301  140.0747  170.6618 O.2     1  UNL1       -0.3578
     18 N         138.7683  139.6775  169.3756 N.ar    1  UNL1       -0.0774
     19 C         139.5818  143.3538  159.2684 C.3     1  UNL1        0.0294
     20 C         140.4790  142.9311  158.1430 C.3     1  UNL1        0.0666
     21 S         141.7260  142.1489  158.4313 S.3     1  UNL1       -0.0756
     22 C         141.9394  139.9596  161.6292 C.ar    1  UNL1        0.1668
     23 N         141.4699  138.9538  160.6202 N.ar    1  UNL1       -0.1282
     24 N         141.3328  139.6516  159.2995 N.ar    1  UNL1       -0.1221
     25 C         141.7176  141.0885  159.4922 C.ar    1  UNL1        0.1932
     26 N         142.0925  141.2788  160.9320 N.ar    1  UNL1       -0.2884
     27 C         142.5417  142.5630  161.5638 C.3     1  UNL1        0.1340
     28 C         143.0161  138.8926  167.4346 C.3     1  UNL1        0.0310
     29 C         142.7469  139.1593  165.9832 C.ar    1  UNL1       -0.0218
     30 C         142.9529  140.5354  165.4228 C.ar    1  UNL1       -0.0042
     31 C         142.6837  140.8021  163.9714 C.ar    1  UNL1        0.0027
     32 C         142.2086  139.6928  163.0805 C.ar    1  UNL1        0.0359
     33 C         142.0027  138.3169  163.6410 C.ar    1  UNL1        0.0027
     34 C         142.2719  138.0501  165.0924 C.ar    1  UNL1       -0.0042
@<TRIPOS>BOND
     1    28    29    1
     2    29    30   ar
     3    30    31   ar
     4    31    32   ar
     5    32    22    1
     6    22    23   ar
     7    23    24   ar
     8    24    25   ar
     9    25    21    1
    10    21    20    1
    11    20    19    1
    12    19     1    1
    13     1     2    1
    14     2     3    1
    15     3     4    1
    16     4     5    1
    17     5     6   ar
    18     6     7   ar
    19     7     8   ar
    20     8    13    1
    21    13    14   ar
    22    14    15   ar
    23    15    16    1
    24    15    17   ar
    25    17    18   ar
    26     8     9   ar
    27     9    10   ar
    28    10    11    1
    29    11    12    1
    30    25    26   ar
    31    26    27    1
    32    32    33   ar
    33    33    34   ar
    34    34    29   ar
    35    26    22   ar
    36    12     2    1
    37    10     5   ar
    38    18    13   ar
@<TRIPOS>MOLECULE
*****
 34 38 0 0 0
SMALL
GASTEIGER

@<TRIPOS>ATOM
      1 C         140.1670  145.7362  160.8883 C.3     1  UNL1        0.0730
      2 N         140.0329  144.7220  161.9854 N.3     1  UNL1       -0.2720
      3 C         138.9950  143.6610  161.7675 C.3     1  UNL1        0.0768
      4 C         138.6223  142.5189  162.6657 C.3     1  UNL1        0.0433
      5 C         139.1953  142.1557  164.0034 C.ar    1  UNL1       -0.0247
      6 C         138.5355  140.9327  164.5684 C.ar    1  UNL1       -0.0045
      7 C         138.9630  140.3990  165.9035 C.ar    1  UNL1        0.0013
      8 C         140.0503  141.0880  166.6736 C.ar    1  UNL1        0.0206
      9 C         140.7101  142.3110  166.1085 C.ar    1  UNL1       -0.0029
     10 C         140.2826  142.8447  164.7735 C.ar    1  UNL1       -0.0246
     11 C         141.0654  144.0673  164.3960 C.3     1  UNL1        0.0433
     12 C         140.9542  144.9028  163.1551 C.3     1  UNL1        0.0768
     13 C         140.4777  140.5543  168.0086 C.ar    1  UNL1        0.1227
     14 C         141.8469  140.6749  168.6091 C.ar    1  UNL1        0.0580
     15 C         141.8264  140.0014  169.9491 C.ar    1  UNL1        0.1548
     16 C         142.9846  139.8852  170.8953 C.3     1  UNL1        0.0754
     17 O         140.4445  139.4644  170.1769 O.2     1  UNL1       -0.3578
     18 N         139.6109  139.8061  168.9776 N.ar    1  UNL1       -0.0774
     19 C         140.2224  145.2902  159.4573 C.3     1  UNL1        0.0294
     20 C         141.5405  145.2183  158.7447 C.3     1  UNL1        0.0666
     21 S         142.2379  143.8995  158.5890 S.3     1  UNL1       -0.0756
     22 C         141.9083  141.2086  161.3667 C.ar    1  UNL1        0.1668
     23 N         140.8176  140.7893  160.4260 N.ar    1  UNL1       -0.1282
     24 N         140.8084  141.7463  159.2711 N.ar    1  UNL1       -0.1221
     25 C         141.8933  142.7570  159.4979 C.ar    1  UNL1        0.1932
     26 N         142.5730  142.4247  160.7930 N.ar    1  UNL1       -0.2884
     27 C         143.7168  143.1765  161.4068 C.3     1  UNL1        0.1340
     28 C         143.3572  138.4973  166.5193 C.3     1  UNL1        0.0310
     29 C         142.9950  139.1751  165.2311 C.ar    1  UNL1       -0.0218
     30 C         143.7124  140.4245  164.8135 C.ar    1  UNL1       -0.0042
     31 C         143.3502  141.1023  163.5253 C.ar    1  UNL1        0.0027
     32 C         142.2705  140.5308  162.6548 C.ar    1  UNL1        0.0359
     33 C         141.5532  139.2814  163.0725 C.ar    1  UNL1        0.0027
     34 C         141.9155  138.6036  164.3607 C.ar    1  UNL1       -0.0042
@<TRIPOS>BOND
     1    28    29    1
     2    29    30   ar
     3    30    31   ar
     4    31    32   ar
     5    32    22    1
     6    22    23   ar
     7    23    24   ar
     8    24    25   ar
     9    25    21    1
    10    21    20    1
    11    20    19    1
    12    19     1    1
    13     1     2    1
    14     2     3    1
    15     3     4    1
    16     4     5    1
    17     5     6   ar
    18     6     7   ar
    19     7     8   ar
    20     8    13    1
    21    13    14   ar
    22    14    15   ar
    23    15    16    1
    24    15    17   ar
    25    17    18   ar
    26     8     9   ar
    27     9    10   ar
    28    10    11    1
    29    11    12    1
    30    25    26   ar
    31    26    27    1
    32    32    33   ar
    33    33    34   ar
    34    34    29   ar
    35    26    22   ar
    36    12     2    1
    37    10     5   ar
    38    18    13   ar
@<TRIPOS>MOLECULE
*****
 34 38 0 0 0
SMALL
GASTEIGER

@<TRIPOS>ATOM
      1 C         139.2569  139.4678  158.9394 C.3     1  UNL1        0.0730
      2 N         139.2568  139.4334  160.4390 N.3     1  UNL1       -0.2720
      3 C         138.9027  138.1144  161.0596 C.3     1  UNL1        0.0768
      4 C         138.8151  137.7587  162.5143 C.3     1  UNL1        0.0433
      5 C         139.0599  138.6341  163.7074 C.ar    1  UNL1       -0.0247
      6 C         138.8633  137.8806  164.9895 C.ar    1  UNL1       -0.0045
      7 C         139.0596  138.5743  166.3049 C.ar    1  UNL1        0.0013
      8 C         139.4525  140.0216  166.3383 C.ar    1  UNL1        0.0206
      9 C         139.6491  140.7751  165.0562 C.ar    1  UNL1       -0.0029
     10 C         139.4528  140.0813  163.7408 C.ar    1  UNL1       -0.0246
     11 C         139.6979  141.0107  162.5892 C.3     1  UNL1        0.0433
     12 C         139.6106  140.7222  161.1198 C.3     1  UNL1        0.0768
     13 C         139.6488  140.7153  167.6536 C.ar    1  UNL1        0.1227
     14 C         140.2559  142.0723  167.8527 C.ar    1  UNL1        0.0580
     15 C         140.2547  142.3695  169.3230 C.ar    1  UNL1        0.1548
     16 C         140.7709  143.6205  169.9700 C.3     1  UNL1        0.0754
     17 O         139.6468  141.1961  170.0326 O.2     1  UNL1       -0.3578
     18 N         139.2723  140.1737  169.0009 N.ar    1  UNL1       -0.0774
     19 C         140.4169  140.0698  158.2032 C.3     1  UNL1        0.0294
     20 C         141.5119  139.1883  157.6797 C.3     1  UNL1        0.0666
     21 S         142.8841  139.2594  158.2814 S.3     1  UNL1       -0.0756
     22 C         143.1755  140.1810  162.0405 C.ar    1  UNL1        0.1668
     23 N         143.5800  141.4724  161.3932 N.ar    1  UNL1       -0.1282
     24 N         143.5200  141.2843  159.9063 N.ar    1  UNL1       -0.1221
     25 C         143.0785  139.8767  159.6346 C.ar    1  UNL1        0.1932
     26 N         142.8656  139.1949  160.9536 N.ar    1  UNL1       -0.2884
     27 C         142.4209  137.7760  161.1510 C.3     1  UNL1        0.1340
     28 C         142.8538  139.1428  167.9412 C.3     1  UNL1        0.0310
     29 C         142.9342  139.4024  166.4660 C.ar    1  UNL1       -0.0218
     30 C         142.7308  138.2778  165.4945 C.ar    1  UNL1       -0.0042
     31 C         142.8112  138.5373  164.0193 C.ar    1  UNL1        0.0027
     32 C         143.0951  139.9215  163.5156 C.ar    1  UNL1        0.0359
     33 C         143.2985  141.0460  164.4873 C.ar    1  UNL1        0.0027
     34 C         143.2181  140.7864  165.9624 C.ar    1  UNL1       -0.0042
@<TRIPOS>BOND
     1    28    29    1
     2    29    30   ar
     3    30    31   ar
     4    31    32   ar
     5    32    22    1
     6    22    23   ar
     7    23    24   ar
     8    24    25   ar
     9    25    21    1
    10    21    20    1
    11    20    19    1
    12    19     1    1
    13     1     2    1
    14     2     3    1
    15     3     4    1
    16     4     5    1
    17     5     6   ar
    18     6     7   ar
    19     7     8   ar
    20     8    13    1
    21    13    14   ar
    22    14    15   ar
    23    15    16    1
    24    15    17   ar
    25    17    18   ar
    26     8     9   ar
    27     9    10   ar
    28    10    11    1
    29    11    12    1
    30    25    26   ar
    31    26    27    1
    32    32    33   ar
    33    33    34   ar
    34    34    29   ar
    35    26    22   ar
    36    12     2    1
    37    10     5   ar
    38    18    13   ar
@<TRIPOS>MOLECULE
*****
 34 38 0 0 0
SMALL
GASTEIGER

@<TRIPOS>ATOM
      1 C         141.9657  139.6772  158.7703 C.3     1  UNL1        0.0730
      2 N         141.5059  139.6786  160.1981 N.3     1  UNL1       -0.2720
      3 C         140.6531  138.5147  160.6082 C.3     1  UNL1        0.0768
      4 C         140.0435  138.2284  161.9486 C.3     1  UNL1        0.0433
      5 C         140.1362  139.0351  163.2096 C.ar    1  UNL1       -0.0247
      6 C         139.3754  138.3901  164.3301 C.ar    1  UNL1       -0.0045
      7 C         139.3398  139.0374  165.6827 C.ar    1  UNL1        0.0013
      8 C         140.0649  140.3297  165.9151 C.ar    1  UNL1        0.0206
      9 C         140.8257  140.9748  164.7947 C.ar    1  UNL1       -0.0029
     10 C         140.8613  140.3275  163.4420 C.ar    1  UNL1       -0.0246
     11 C         141.6729  141.1323  162.4706 C.3     1  UNL1        0.0433
     12 C         141.9597  140.8434  161.0269 C.3     1  UNL1        0.0768
     13 C         140.0293  140.9770  167.2678 C.ar    1  UNL1        0.1227
     14 C         140.5007  142.3630  167.5947 C.ar    1  UNL1        0.0580
     15 C         140.2788  142.5945  169.0600 C.ar    1  UNL1        0.1548
     16 C         140.6078  143.8487  169.8141 C.3     1  UNL1        0.0754
     17 O         139.6703  141.3517  169.6387 O.2     1  UNL1       -0.3578
     18 N         139.5160  140.3520  168.5311 N.ar    1  UNL1       -0.0774
     19 C         141.0315  139.2380  157.6820 C.3     1  UNL1        0.0294
     20 C         140.3297  140.2605  156.8380 C.3     1  UNL1        0.0666
     21 S         138.9201  140.6592  157.1602 S.3     1  UNL1       -0.0756
     22 C         138.1736  141.5891  160.8540 C.ar    1  UNL1        0.1668
     23 N         137.4329  140.2909  160.7265 N.ar    1  UNL1       -0.1282
     24 N         137.6225  139.7846  159.3273 N.ar    1  UNL1       -0.1221
     25 C         138.4802  140.7698  158.5900 C.ar    1  UNL1        0.1932
     26 N         138.8208  141.8850  159.5335 N.ar    1  UNL1       -0.2884
     27 C         139.6611  143.0855  159.2129 C.3     1  UNL1        0.1340
     28 C         138.4914  144.9990  165.7805 C.3     1  UNL1        0.0310
     29 C         138.4120  144.1465  164.5488 C.ar    1  UNL1       -0.0218
     30 C         139.1136  144.5744  163.2940 C.ar    1  UNL1       -0.0042
     31 C         139.0342  143.7219  162.0624 C.ar    1  UNL1        0.0027
     32 C         138.2531  142.4415  162.0855 C.ar    1  UNL1        0.0359
     33 C         137.5514  142.0138  163.3404 C.ar    1  UNL1        0.0027
     34 C         137.6309  142.8662  164.5720 C.ar    1  UNL1       -0.0042
@<TRIPOS>BOND
     1    28    29    1
     2    29    30   ar
     3    30    31   ar
     4    31    32   ar
     5    32    22    1
     6    22    23   ar
     7    23    24   ar
     8    24    25   ar
     9    25    21    1
    10    21    20    1
    11    20    19    1
    12    19     1    1
    13     1     2    1
    14     2     3    1
    15     3     4    1
    16     4     5    1
    17     5     6   ar
    18     6     7   ar
    19     7     8   ar
    20     8    13    1
    21    13    14   ar
    22    14    15   ar
    23    15    16    1
    24    15    17   ar
    25    17    18   ar
    26     8     9   ar
    27     9    10   ar
    28    10    11    1
    29    11    12    1
    30    25    26   ar
    31    26    27    1
    32    32    33   ar
    33    33    34   ar
    34    34    29   ar
    35    26    22   ar
    36    12     2    1
    37    10     5   ar
    38    18    13   ar
@<TRIPOS>MOLECULE
*****
 34 38 0 0 0
SMALL
GASTEIGER

@<TRIPOS>ATOM
      1 C         144.7503  141.9580  160.6798 C.3     1  UNL1        0.0730
      2 N         144.2034  141.5316  162.0099 N.3     1  UNL1       -0.2720
      3 C         144.5967  140.1573  162.4649 C.3     1  UNL1        0.0768
      4 C         144.2192  139.4479  163.7316 C.3     1  UNL1        0.0433
      5 C         143.3555  139.9374  164.8559 C.ar    1  UNL1       -0.0247
      6 C         143.2318  138.9081  165.9401 C.ar    1  UNL1       -0.0045
      7 C         142.4084  139.1988  167.1597 C.ar    1  UNL1        0.0013
      8 C         141.7086  140.5186  167.2953 C.ar    1  UNL1        0.0206
      9 C         141.8323  141.5479  166.2111 C.ar    1  UNL1       -0.0029
     10 C         142.6557  141.2572  164.9914 C.ar    1  UNL1       -0.0246
     11 C         142.6469  142.4136  164.0360 C.3     1  UNL1        0.0433
     12 C         143.3358  142.5356  162.7091 C.3     1  UNL1        0.0768
     13 C         140.8852  140.8092  168.5149 C.ar    1  UNL1        0.1227
     14 C         140.6006  142.1678  169.0833 C.ar    1  UNL1        0.0580
     15 C         139.7413  141.9905  170.3000 C.ar    1  UNL1        0.1548
     16 C         139.2200  143.0886  171.1788 C.3     1  UNL1        0.0754
     17 O         139.4949  140.5223  170.4834 O.2     1  UNL1       -0.3578
     18 N         140.2018  139.7922  169.3802 N.ar    1  UNL1       -0.0774
     19 C         143.8157  142.2523  159.5441 C.3     1  UNL1        0.0294
     20 C         143.6328  141.2489  158.4441 C.3     1  UNL1        0.0666
     21 S         142.4383  140.3417  158.4475 S.3     1  UNL1       -0.0756
     22 C         141.1478  138.8503  161.7905 C.ar    1  UNL1        0.1668
     23 N         142.0605  137.7574  161.3187 N.ar    1  UNL1       -0.1282
     24 N         142.6549  138.1831  160.0090 N.ar    1  UNL1       -0.1221
     25 C         142.1097  139.5391  159.6713 C.ar    1  UNL1        0.1932
     26 N         141.1783  139.9514  160.7724 N.ar    1  UNL1       -0.2884
     27 C         140.4118  141.2389  160.8429 C.3     1  UNL1        0.1340
     28 C         137.9388  138.8224  166.8602 C.3     1  UNL1        0.0310
     29 C         138.7411  138.8294  165.5927 C.ar    1  UNL1       -0.0218
     30 C         138.7570  140.0507  164.7219 C.ar    1  UNL1       -0.0042
     31 C         139.5592  140.0576  163.4545 C.ar    1  UNL1        0.0027
     32 C         140.3456  138.8434  163.0579 C.ar    1  UNL1        0.0359
     33 C         140.3296  137.6222  163.9288 C.ar    1  UNL1        0.0027
     34 C         139.5274  137.6152  165.1962 C.ar    1  UNL1       -0.0042
@<TRIPOS>BOND
     1    28    29    1
     2    29    30   ar
     3    30    31   ar
     4    31    32   ar
     5    32    22    1
     6    22    23   ar
     7    23    24   ar
     8    24    25   ar
     9    25    21    1
    10    21    20    1
    11    20    19    1
    12    19     1    1
    13     1     2    1
    14     2     3    1
    15     3     4    1
    16     4     5    1
    17     5     6   ar
    18     6     7   ar
    19     7     8   ar
    20     8    13    1
    21    13    14   ar
    22    14    15   ar
    23    15    16    1
    24    15    17   ar
    25    17    18   ar
    26     8     9   ar
    27     9    10   ar
    28    10    11    1
    29    11    12    1
    30    25    26   ar
    31    26    27    1
    32    32    33   ar
    33    33    34   ar
    34    34    29   ar
    35    26    22   ar
    36    12     2    1
    37    10     5   ar
    38    18    13   ar
@<TRIPOS>MOLECULE
*****
 34 38 0 0 0
SMALL
GASTEIGER

@<TRIPOS>ATOM
      1 C         141.5478  142.3661  159.2143 C.3     1  UNL1        0.0730
      2 N         141.7529  141.6814  160.5330 N.3     1  UNL1       -0.2720
      3 C         142.1774  140.2444  160.4611 C.3     1  UNL1        0.0768
      4 C         142.4602  139.2953  161.5878 C.3     1  UNL1        0.0433
      5 C         142.3884  139.5487  163.0644 C.ar    1  UNL1       -0.0247
      6 C         142.7523  138.3232  163.8491 C.ar    1  UNL1       -0.0045
      7 C         142.7437  138.3627  165.3485 C.ar    1  UNL1        0.0013
      8 C         142.3714  139.6277  166.0634 C.ar    1  UNL1        0.0206
      9 C         142.0076  140.8533  165.2787 C.ar    1  UNL1       -0.0029
     10 C         142.0161  140.8138  163.7793 C.ar    1  UNL1       -0.0246
     11 C         141.6236  142.1379  163.1939 C.3     1  UNL1        0.0433
     12 C         141.5065  142.5240  161.7492 C.3     1  UNL1        0.0768
     13 C         142.3629  139.6673  167.5628 C.ar    1  UNL1        0.1227
     14 C         141.5857  140.6261  168.4151 C.ar    1  UNL1        0.0580
     15 C         141.8725  140.3063  169.8523 C.ar    1  UNL1        0.1548
     16 C         141.3046  141.0181  171.0442 C.3     1  UNL1        0.0754
     17 O         142.8271  139.1498  169.8882 O.2     1  UNL1       -0.3578
     18 N         143.1301  138.7548  168.4732 N.ar    1  UNL1       -0.0774
     19 C         141.0851  141.5787  158.0243 C.3     1  UNL1        0.0294
     20 C         139.7206  141.8199  157.4499 C.3     1  UNL1        0.0666
     21 S         138.5310  141.1029  158.0161 S.3     1  UNL1       -0.0756
     22 C         138.7688  139.3644  161.4783 C.ar    1  UNL1        0.1668
     23 N         139.1286  138.2336  160.5608 N.ar    1  UNL1       -0.1282
     24 N         139.0833  138.7472  159.1522 N.ar    1  UNL1       -0.1221
     25 C         138.6955  140.1954  159.1991 C.ar    1  UNL1        0.1932
     26 N         138.5011  140.5769  160.6367 N.ar    1  UNL1       -0.2884
     27 C         138.1080  141.9328  161.1437 C.3     1  UNL1        0.1340
     28 C         138.4552  139.0866  167.4636 C.3     1  UNL1        0.0310
     29 C         138.5336  139.1561  165.9673 C.ar    1  UNL1       -0.0218
     30 C         138.9288  137.9421  165.1798 C.ar    1  UNL1       -0.0042
     31 C         139.0072  138.0115  163.6835 C.ar    1  UNL1        0.0027
     32 C         138.6904  139.2950  162.9746 C.ar    1  UNL1        0.0359
     33 C         138.2952  140.5089  163.7621 C.ar    1  UNL1        0.0027
     34 C         138.2168  140.4394  165.2585 C.ar    1  UNL1       -0.0042
@<TRIPOS>BOND
     1    28    29    1
     2    29    30   ar
     3    30    31   ar
     4    31    32   ar
     5    32    22    1
     6    22    23   ar
     7    23    24   ar
     8    24    25   ar
     9    25    21    1
    10    21    20    1
    11    20    19    1
    12    19     1    1
    13     1     2    1
    14     2     3    1
    15     3     4    1
    16     4     5    1
    17     5     6   ar
    18     6     7   ar
    19     7     8   ar
    20     8    13    1
    21    13    14   ar
    22    14    15   ar
    23    15    16    1
    24    15    17   ar
    25    17    18   ar
    26     8     9   ar
    27     9    10   ar
    28    10    11    1
    29    11    12    1
    30    25    26   ar
    31    26    27    1
    32    32    33   ar
    33    33    34   ar
    34    34    29   ar
    35    26    22   ar
    36    12     2    1
    37    10     5   ar
    38    18    13   ar
@<TRIPOS>MOLECULE
*****
 34 38 0 0 0
SMALL
GASTEIGER

@<TRIPOS>ATOM
      1 C         141.7649  139.3950  158.2620 C.3     1  UNL1        0.0730
      2 N         141.5877  139.7741  159.7024 N.3     1  UNL1       -0.2720
      3 C         142.1381  141.1131  160.0954 C.3     1  UNL1        0.0768
      4 C         142.1202  141.7728  161.4425 C.3     1  UNL1        0.0433
      5 C         141.5477  141.2565  162.7291 C.ar    1  UNL1       -0.0247
      6 C         141.7423  142.2366  163.8479 C.ar    1  UNL1       -0.0045
      7 C         141.2408  141.9132  165.2240 C.ar    1  UNL1        0.0013
      8 C         140.5447  140.6097  165.4816 C.ar    1  UNL1        0.0206
      9 C         140.3501  139.6296  164.3628 C.ar    1  UNL1       -0.0029
     10 C         140.8516  139.9530  162.9867 C.ar    1  UNL1       -0.0246
     11 C         140.5561  138.8438  162.0210 C.3     1  UNL1        0.0433
     12 C         140.8837  138.7643  160.5594 C.3     1  UNL1        0.0768
     13 C         140.0432  140.2863  166.8578 C.ar    1  UNL1        0.1227
     14 C         140.6905  140.6895  168.1494 C.ar    1  UNL1        0.0580
     15 C         139.8538  140.1553  169.2739 C.ar    1  UNL1        0.1548
     16 C         140.1326  140.3248  170.7379 C.3     1  UNL1        0.0754
     17 O         138.6893  139.4219  168.6772 O.2     1  UNL1       -0.3578
     18 N         138.8063  139.5028  167.1839 N.ar    1  UNL1       -0.0774
     19 C         140.5637  139.1578  157.3956 C.3     1  UNL1        0.0294
     20 C         139.9114  140.3077  156.6867 C.3     1  UNL1        0.0666
     21 S         138.5807  140.8189  157.1534 S.3     1  UNL1       -0.0756
     22 C         138.1093  141.6620  160.9127 C.ar    1  UNL1        0.1668
     23 N         137.4948  140.2953  160.8429 N.ar    1  UNL1       -0.1282
     24 N         137.5966  139.8133  159.4261 N.ar    1  UNL1       -0.1221
     25 C         138.2740  140.8818  158.6204 C.ar    1  UNL1        0.1932
     26 N         138.5908  142.0244  159.5391 N.ar    1  UNL1       -0.2884
     27 C         139.2700  143.3047  159.1522 C.3     1  UNL1        0.1340
     28 C         138.5615  145.0786  165.8241 C.3     1  UNL1        0.0310
     29 C         138.4485  144.2245  164.5962 C.ar    1  UNL1       -0.0218
     30 C         139.0504  144.6873  163.3026 C.ar    1  UNL1       -0.0042
     31 C         138.9374  143.8331  162.0747 C.ar    1  UNL1        0.0027
     32 C         138.2223  142.5161  162.1405 C.ar    1  UNL1        0.0359
     33 C         137.6204  142.0534  163.4341 C.ar    1  UNL1        0.0027
     34 C         137.7335  142.9076  164.6620 C.ar    1  UNL1       -0.0042
@<TRIPOS>BOND
     1    28    29    1
     2    29    30   ar
     3    30    31   ar
     4    31    32   ar
     5    32    22    1
     6    22    23   ar
     7    23    24   ar
     8    24    25   ar
     9    25    21    1
    10    21    20    1
    11    20    19    1
    12    19     1    1
    13     1     2    1
    14     2     3    1
    15     3     4    1
    16     4     5    1
    17     5     6   ar
    18     6     7   ar
    19     7     8   ar
    20     8    13    1
    21    13    14   ar
    22    14    15   ar
    23    15    16    1
    24    15    17   ar
    25    17    18   ar
    26     8     9   ar
    27     9    10   ar
    28    10    11    1
    29    11    12    1
    30    25    26   ar
    31    26    27    1
    32    32    33   ar
    33    33    34   ar
    34    34    29   ar
    35    26    22   ar
    36    12     2    1
    37    10     5   ar
    38    18    13   ar
@<TRIPOS>MOLECULE
*****
 34 38 0 0 0
SMALL
GASTEIGER

@<TRIPOS>ATOM
      1 C         140.2662  141.2425  158.0449 C.3     1  UNL1        0.0730
      2 N         139.9990  140.6917  159.4143 N.3     1  UNL1       -0.2720
      3 C         139.7501  139.2141  159.4842 C.3     1  UNL1        0.0768
      4 C         139.4567  138.3711  160.6898 C.3     1  UNL1        0.0433
      5 C         139.3399  138.7975  162.1231 C.ar    1  UNL1       -0.0247
      6 C         139.0347  137.6331  163.0181 C.ar    1  UNL1       -0.0045
      7 C         138.8771  137.8434  164.4949 C.ar    1  UNL1        0.0013
      8 C         139.0247  139.2180  165.0768 C.ar    1  UNL1        0.0206
      9 C         139.3299  140.3825  164.1817 C.ar    1  UNL1       -0.0029
     10 C         139.4875  140.1722  162.7049 C.ar    1  UNL1       -0.0246
     11 C         139.7885  141.4600  161.9971 C.3     1  UNL1        0.0433
     12 C         140.0161  141.6911  160.5325 C.3     1  UNL1        0.0768
     13 C         138.8672  139.4283  166.5536 C.ar    1  UNL1        0.1227
     14 C         139.6708  140.3698  167.4008 C.ar    1  UNL1        0.0580
     15 C         139.1786  140.2573  168.8133 C.ar    1  UNL1        0.1548
     16 C         139.7023  141.0217  169.9929 C.3     1  UNL1        0.0754
     17 O         138.0708  139.2464  168.8390 O.2     1  UNL1       -0.3578
     18 N         137.8782  138.7340  167.4424 N.ar    1  UNL1       -0.0774
     19 C         141.1543  140.4941  157.0956 C.3     1  UNL1        0.0294
     20 C         142.5552  140.9692  156.8465 C.3     1  UNL1        0.0666
     21 S         143.5199  141.0914  157.9885 S.3     1  UNL1       -0.0756
     22 C         143.2326  139.3504  161.4457 C.ar    1  UNL1        0.1668
     23 N         143.2242  138.1672  160.5237 N.ar    1  UNL1       -0.1282
     24 N         143.3308  138.6754  159.1165 N.ar    1  UNL1       -0.1221
     25 C         143.4051  140.1726  159.1687 C.ar    1  UNL1        0.1932
     26 N         143.3444  140.5897  160.6082 N.ar    1  UNL1       -0.2884
     27 C         143.3879  141.9990  161.1204 C.3     1  UNL1        0.1340
     28 C         142.8810  139.1589  167.4323 C.3     1  UNL1        0.0310
     29 C         142.9689  139.2068  165.9356 C.ar    1  UNL1       -0.0218
     30 C         143.5304  140.4203  165.2558 C.ar    1  UNL1       -0.0042
     31 C         143.6183  140.4681  163.7591 C.ar    1  UNL1        0.0027
     32 C         143.1447  139.3025  162.9423 C.ar    1  UNL1        0.0359
     33 C         142.5833  138.0891  163.6223 C.ar    1  UNL1        0.0027
     34 C         142.4954  138.0413  165.1189 C.ar    1  UNL1       -0.0042
@<TRIPOS>BOND
     1    28    29    1
     2    29    30   ar
     3    30    31   ar
     4    31    32   ar
     5    32    22    1
     6    22    23   ar
     7    23    24   ar
     8    24    25   ar
     9    25    21    1
    10    21    20    1
    11    20    19    1
    12    19     1    1
    13     1     2    1
    14     2     3    1
    15     3     4    1
    16     4     5    1
    17     5     6   ar
    18     6     7   ar
    19     7     8   ar
    20     8    13    1
    21    13    14   ar
    22    14    15   ar
    23    15    16    1
    24    15    17   ar
    25    17    18   ar
    26     8     9   ar
    27     9    10   ar
    28    10    11    1
    29    11    12    1
    30    25    26   ar
    31    26    27    1
    32    32    33   ar
    33    33    34   ar
    34    34    29   ar
    35    26    22   ar
    36    12     2    1
    37    10     5   ar
    38    18    13   ar
