@<TRIPOS>MOLECULE
*****
 36 40 0 0 0
SMALL
GASTEIGER

@<TRIPOS>ATOM
      1 C         142.5457  137.9655  158.8440 C.2     1  UNL1        0.2425
      2 O         141.9699  139.3447  158.9715 O.2     1  UNL1       -0.2733
      3 N         143.0402  137.2436  160.0622 N.am    1  UNL1       -0.3018
      4 H         143.4181  136.3384  159.9785 H       1  UNL1        0.1495
      5 C         142.9591  137.9009  161.4081 C.3     1  UNL1        0.1035
      6 C         141.9338  137.9557  162.5017 C.3     1  UNL1        0.0933
      7 N         142.8442  138.8305  163.3114 N.3     1  UNL1       -0.2711
      8 C         143.8694  138.7758  162.2179 C.3     1  UNL1        0.0933
      9 C         142.7630  139.4879  164.6573 C.3     1  UNL1        0.0576
     10 C         143.0554  138.6963  165.8974 C.3     1  UNL1        0.0164
     11 C         142.9743  139.3536  167.2432 C.3     1  UNL1        0.0078
     12 C         142.6007  140.8026  167.3490 C.3     1  UNL1        0.0466
     13 C         142.3083  141.5941  166.1089 C.3     1  UNL1        0.0078
     14 C         142.3895  140.9368  164.7630 C.3     1  UNL1        0.0164
     15 C         142.5196  141.4598  168.6949 C.ar    1  UNL1        0.0879
     16 N         143.4533  142.5092  169.2213 N.ar    1  UNL1       -0.2412
     17 C         143.0014  142.8810  170.6024 C.ar    1  UNL1        0.1060
     18 C         141.7884  142.0615  170.9296 C.ar    1  UNL1        0.0572
     19 S         141.4906  141.1832  169.7507 S.2     1  UNL1       -0.0702
     20 C         142.6268  137.3082  157.4981 C.3     1  UNL1        0.1747
     21 N         141.3817  136.7937  156.8384 N.pl3   1  UNL1       -0.3093
     22 H         140.5006  137.1321  157.1182 H       1  UNL1        0.1487
     23 C         140.6189  134.1760  152.3166 C.3     1  UNL1        0.1537
     24 N         141.1286  134.5604  153.6740 N.ar    1  UNL1       -0.2476
     25 N         140.7264  135.7762  154.4551 N.ar    1  UNL1       -0.1544
     26 C         141.4792  135.7636  155.7524 C.ar    1  UNL1        0.1500
     27 C         142.3467  134.5401  155.7731 C.ar    1  UNL1        0.0503
     28 C         143.3060  134.0070  156.7956 C.ar    1  UNL1        0.0082
     29 C         144.0485  132.7303  156.5336 C.ar    1  UNL1        0.0716
     30 C         143.8318  131.9867  155.2491 C.ar    1  UNL1        0.0054
     31 C         142.8726  132.5198  154.2265 C.ar    1  UNL1        0.0188
     32 C         142.1300  133.7964  154.4885 C.ar    1  UNL1        0.0807
     33 C         145.0078  132.1972  157.5562 C.3     1  UNL1        0.4186
     34 F         145.9671  131.6641  158.5788 F       1  UNL1       -0.1659
     35 F         144.7913  133.4203  158.3970 F       1  UNL1       -0.1659
     36 F         145.2244  130.9741  156.7154 F       1  UNL1       -0.1659
@<TRIPOS>BOND
     1    23    24    1
     2    24    25   ar
     3    25    26   ar
     4    26    21    1
     5    21    20    1
     6    20     1    1
     7     1     2    2
     8     1     3   am
     9     3     5    1
    10     5     6    1
    11     6     7    1
    12     9     7    1
    13     9    10    1
    14    10    11    1
    15    11    12    1
    16    12    15    1
    17    15    16   ar
    18    16    17   ar
    19    17    18   ar
    20    18    19   ar
    21    12    13    1
    22    13    14    1
    23     7     8    1
    24    26    27   ar
    25    27    28   ar
    26    28    29   ar
    27    29    33    1
    28    33    34    1
    29    33    35    1
    30    33    36    1
    31    29    30   ar
    32    30    31   ar
    33    31    32   ar
    34    32    24   ar
    35     8     5    1
    36    32    27   ar
    37    14     9    1
    38    19    15   ar
    39    21    22    1
    40     3     4    1
@<TRIPOS>MOLECULE
*****
 36 40 0 0 0
SMALL
GASTEIGER

@<TRIPOS>ATOM
      1 C         142.5791  137.8333  158.1701 C.2     1  UNL1        0.2425
      2 O         141.9647  139.1918  158.3339 O.2     1  UNL1       -0.2733
      3 N         143.1171  137.1043  159.3655 N.am    1  UNL1       -0.3018
      4 H         143.5203  136.2127  159.2579 H       1  UNL1        0.1495
      5 C         143.0408  137.7340  160.7248 C.3     1  UNL1        0.1035
      6 C         144.0206  138.4122  161.6361 C.3     1  UNL1        0.0933
      7 N         142.9330  138.6246  162.6471 N.3     1  UNL1       -0.2711
      8 C         141.9534  137.9465  161.7358 C.3     1  UNL1        0.0933
      9 C         142.8568  139.2543  164.0064 C.3     1  UNL1        0.0576
     10 C         143.0973  138.4239  165.2322 C.3     1  UNL1        0.0164
     11 C         143.0210  139.0536  166.5914 C.3     1  UNL1        0.0078
     12 C         142.7042  140.5137  166.7250 C.3     1  UNL1        0.0466
     13 C         142.4636  141.3440  165.4992 C.3     1  UNL1        0.0078
     14 C         142.5399  140.7143  164.1399 C.3     1  UNL1        0.0164
     15 C         142.6279  141.1432  168.0843 C.ar    1  UNL1        0.0879
     16 N         143.2986  142.4175  168.5046 N.ar    1  UNL1       -0.2412
     17 C         142.9528  142.6710  169.9421 C.ar    1  UNL1        0.1060
     18 C         142.0685  141.5535  170.4102 C.ar    1  UNL1        0.0572
     19 S         141.8677  140.6093  169.2620 S.2     1  UNL1       -0.0702
     20 C         142.6553  137.2036  156.8108 C.3     1  UNL1        0.1747
     21 N         141.9654  135.8975  156.5494 N.pl3   1  UNL1       -0.3093
     22 H         141.0257  135.8872  156.2558 H       1  UNL1        0.1487
     23 C         145.5027  132.3265  158.1670 C.3     1  UNL1        0.1537
     24 N         144.3330  132.9657  157.4789 N.ar    1  UNL1       -0.2476
     25 N         143.9271  134.4058  157.5847 N.ar    1  UNL1       -0.1544
     26 C         142.7071  134.6070  156.7354 C.ar    1  UNL1        0.1500
     27 C         142.3592  133.2913  156.1047 C.ar    1  UNL1        0.0503
     28 C         141.2571  132.8859  155.1714 C.ar    1  UNL1        0.0082
     29 C         141.1600  131.4660  154.6976 C.ar    1  UNL1        0.0716
     30 C         142.1648  130.4516  155.1572 C.ar    1  UNL1        0.0054
     31 C         143.2669  130.8570  156.0905 C.ar    1  UNL1        0.0188
     32 C         143.3640  132.2769  156.5643 C.ar    1  UNL1        0.0807
     33 C         140.0579  131.0605  153.7643 C.3     1  UNL1        0.4186
     34 F         138.9558  130.6551  152.8310 F       1  UNL1       -0.1659
     35 F         139.1990  130.6934  154.9379 F       1  UNL1       -0.1659
     36 F         140.9167  131.4277  152.5906 F       1  UNL1       -0.1659
@<TRIPOS>BOND
     1    23    24    1
     2    24    25   ar
     3    25    26   ar
     4    26    21    1
     5    21    20    1
     6    20     1    1
     7     1     2    2
     8     1     3   am
     9     3     5    1
    10     5     6    1
    11     6     7    1
    12     9     7    1
    13     9    10    1
    14    10    11    1
    15    11    12    1
    16    12    15    1
    17    15    16   ar
    18    16    17   ar
    19    17    18   ar
    20    18    19   ar
    21    12    13    1
    22    13    14    1
    23     7     8    1
    24    26    27   ar
    25    27    28   ar
    26    28    29   ar
    27    29    33    1
    28    33    34    1
    29    33    35    1
    30    33    36    1
    31    29    30   ar
    32    30    31   ar
    33    31    32   ar
    34    32    24   ar
    35     8     5    1
    36    32    27   ar
    37    14     9    1
    38    19    15   ar
    39    21    22    1
    40     3     4    1
@<TRIPOS>MOLECULE
*****
 36 40 0 0 0
SMALL
GASTEIGER

@<TRIPOS>ATOM
      1 C         142.6639  144.6925  163.3663 C.2     1  UNL1        0.2425
      2 O         141.3385  144.2423  163.9055 O.2     1  UNL1       -0.2733
      3 N         142.9407  144.6136  161.8943 N.am    1  UNL1       -0.3018
      4 H         143.8106  144.9091  161.5404 H       1  UNL1        0.1495
      5 C         141.8921  144.0845  160.9613 C.3     1  UNL1        0.1035
      6 C         140.5000  144.4985  160.5857 C.3     1  UNL1        0.0933
      7 N         140.4090  143.3363  159.6419 N.3     1  UNL1       -0.2711
      8 C         141.8010  142.9223  160.0174 C.3     1  UNL1        0.0933
      9 C         139.3604  142.8071  158.7089 C.3     1  UNL1        0.0576
     10 C         138.6089  141.5565  159.0570 C.3     1  UNL1        0.0164
     11 C         137.5603  141.0274  158.1241 C.3     1  UNL1        0.0078
     12 C         137.2632  141.7489  156.8430 C.3     1  UNL1        0.0466
     13 C         138.0147  142.9995  156.4949 C.3     1  UNL1        0.0078
     14 C         139.0633  143.5286  157.4278 C.3     1  UNL1        0.0164
     15 C         136.2146  141.2197  155.9101 C.ar    1  UNL1        0.0879
     16 N         135.2842  140.0760  156.1871 N.ar    1  UNL1       -0.2412
     17 C         134.4068  139.8907  154.9847 C.ar    1  UNL1        0.1060
     18 C         134.7948  140.9196  153.9646 C.ar    1  UNL1        0.0572
     19 S         135.9121  141.7410  154.5365 S.2     1  UNL1       -0.0702
     20 C         143.7125  145.2216  164.2993 C.3     1  UNL1        0.1747
     21 N         144.4081  144.2930  165.2501 N.pl3   1  UNL1       -0.3093
     22 H         145.0232  144.6535  165.9289 H       1  UNL1        0.1487
     23 C         144.7137  139.2296  163.7839 C.3     1  UNL1        0.1537
     24 N         144.3070  140.4876  164.4925 N.ar    1  UNL1       -0.2476
     25 N         144.8534  141.8606  164.2351 N.ar    1  UNL1       -0.1544
     26 C         144.1665  142.8149  165.1664 C.ar    1  UNL1        0.1500
     27 C         143.1955  142.0317  165.9994 C.ar    1  UNL1        0.0503
     28 C         142.2436  142.4425  167.0834 C.ar    1  UNL1        0.0082
     29 C         141.3785  141.4149  167.7508 C.ar    1  UNL1        0.0716
     30 C         141.4653  139.9765  167.3343 C.ar    1  UNL1        0.0054
     31 C         142.4172  139.5657  166.2504 C.ar    1  UNL1        0.0188
     32 C         143.2824  140.5933  165.5829 C.ar    1  UNL1        0.0807
     33 C         140.4264  141.8257  168.8348 C.3     1  UNL1        0.4186
     34 F         139.4745  142.2364  169.9188 F       1  UNL1       -0.1659
     35 F         140.2189  140.3853  169.1983 F       1  UNL1       -0.1659
     36 F         140.6339  143.2661  168.4713 F       1  UNL1       -0.1659
@<TRIPOS>BOND
     1    23    24    1
     2    24    25   ar
     3    25    26   ar
     4    26    21    1
     5    21    20    1
     6    20     1    1
     7     1     2    2
     8     1     3   am
     9     3     5    1
    10     5     6    1
    11     6     7    1
    12     9     7    1
    13     9    10    1
    14    10    11    1
    15    11    12    1
    16    12    15    1
    17    15    16   ar
    18    16    17   ar
    19    17    18   ar
    20    18    19   ar
    21    12    13    1
    22    13    14    1
    23     7     8    1
    24    26    27   ar
    25    27    28   ar
    26    28    29   ar
    27    29    33    1
    28    33    34    1
    29    33    35    1
    30    33    36    1
    31    29    30   ar
    32    30    31   ar
    33    31    32   ar
    34    32    24   ar
    35     8     5    1
    36    32    27   ar
    37    14     9    1
    38    19    15   ar
    39    21    22    1
    40     3     4    1
@<TRIPOS>MOLECULE
*****
 36 40 0 0 0
SMALL
GASTEIGER

@<TRIPOS>ATOM
      1 C         139.9891  139.5901  159.3379 C.2     1  UNL1        0.2425
      2 O         139.7029  138.3083  160.0624 O.2     1  UNL1       -0.2733
      3 N         140.7586  139.5683  158.0505 N.am    1  UNL1       -0.3018
      4 H         140.9464  140.4096  157.5750 H       1  UNL1        0.1495
      5 C         141.2419  138.2646  157.4877 C.3     1  UNL1        0.1035
      6 C         140.6209  137.1613  156.6832 C.3     1  UNL1        0.0933
      7 N         141.9254  136.4208  156.6918 N.3     1  UNL1       -0.2711
      8 C         142.5463  137.5240  157.4963 C.3     1  UNL1        0.0933
      9 C         142.4087  135.1171  156.1290 C.3     1  UNL1        0.0576
     10 C         141.8129  134.5805  154.8613 C.3     1  UNL1        0.0164
     11 C         142.2962  133.2769  154.2985 C.3     1  UNL1        0.0078
     12 C         143.3754  132.5096  155.0034 C.3     1  UNL1        0.0466
     13 C         143.9712  133.0462  156.2711 C.3     1  UNL1        0.0078
     14 C         143.4879  134.3499  156.8339 C.3     1  UNL1        0.0164
     15 C         143.8586  131.2060  154.4406 C.ar    1  UNL1        0.0879
     16 N         143.6900  130.7404  153.0246 N.ar    1  UNL1       -0.2412
     17 C         144.3225  129.3857  152.9036 C.ar    1  UNL1        0.1060
     18 C         144.8820  129.0139  154.2448 C.ar    1  UNL1        0.0572
     19 S         144.5953  130.1389  155.1947 S.2     1  UNL1       -0.0702
     20 C         139.5058  140.8938  159.9007 C.3     1  UNL1        0.1747
     21 N         138.6792  140.9100  161.1524 N.pl3   1  UNL1       -0.3093
     22 H         137.7774  140.5151  161.1519 H       1  UNL1        0.1487
     23 C         141.0346  144.2619  164.4837 C.3     1  UNL1        0.1537
     24 N         140.3094  143.0685  163.9360 N.ar    1  UNL1       -0.2476
     25 N         139.9370  142.8455  162.5001 N.ar    1  UNL1       -0.1544
     26 C         139.2267  141.5278  162.4048 C.ar    1  UNL1        0.1500
     27 C         139.1600  140.9364  163.7816 C.ar    1  UNL1        0.0503
     28 C         138.5765  139.6539  164.2959 C.ar    1  UNL1        0.0082
     29 C         138.6620  139.3236  165.7566 C.ar    1  UNL1        0.0716
     30 C         139.3312  140.2758  166.7029 C.ar    1  UNL1        0.0054
     31 C         139.9147  141.5583  166.1886 C.ar    1  UNL1        0.0188
     32 C         139.8291  141.8886  164.7280 C.ar    1  UNL1        0.0807
     33 C         138.0785  138.0410  166.2709 C.3     1  UNL1        0.4186
     34 F         137.4949  136.7584  166.7852 F       1  UNL1       -0.1659
     35 F         138.6458  137.3096  165.0906 F       1  UNL1       -0.1659
     36 F         137.5112  138.7724  167.4512 F       1  UNL1       -0.1659
@<TRIPOS>BOND
     1    23    24    1
     2    24    25   ar
     3    25    26   ar
     4    26    21    1
     5    21    20    1
     6    20     1    1
     7     1     2    2
     8     1     3   am
     9     3     5    1
    10     5     6    1
    11     6     7    1
    12     9     7    1
    13     9    10    1
    14    10    11    1
    15    11    12    1
    16    12    15    1
    17    15    16   ar
    18    16    17   ar
    19    17    18   ar
    20    18    19   ar
    21    12    13    1
    22    13    14    1
    23     7     8    1
    24    26    27   ar
    25    27    28   ar
    26    28    29   ar
    27    29    33    1
    28    33    34    1
    29    33    35    1
    30    33    36    1
    31    29    30   ar
    32    30    31   ar
    33    31    32   ar
    34    32    24   ar
    35     8     5    1
    36    32    27   ar
    37    14     9    1
    38    19    15   ar
    39    21    22    1
    40     3     4    1
@<TRIPOS>MOLECULE
*****
 36 40 0 0 0
SMALL
GASTEIGER

@<TRIPOS>ATOM
      1 C         141.1409  143.7169  158.9830 C.2     1  UNL1        0.2425
      2 O         142.4719  143.1255  159.3415 O.2     1  UNL1       -0.2733
      3 N         140.1402  142.9031  158.2173 N.am    1  UNL1       -0.3018
      4 H         139.2666  143.2913  157.9821 H       1  UNL1        0.1495
      5 C         140.4707  141.4977  157.8102 C.3     1  UNL1        0.1035
      6 C         141.3393  140.8748  156.7577 C.3     1  UNL1        0.0933
      7 N         140.9380  139.5103  157.2342 N.3     1  UNL1       -0.2711
      8 C         140.0695  140.1332  158.2866 C.3     1  UNL1        0.0933
      9 C         141.2685  138.1049  156.8270 C.3     1  UNL1        0.0576
     10 C         142.5214  137.4528  157.3318 C.3     1  UNL1        0.0164
     11 C         142.8518  136.0475  156.9247 C.3     1  UNL1        0.0078
     12 C         141.9293  135.2942  156.0127 C.3     1  UNL1        0.0466
     13 C         140.6764  135.9464  155.5079 C.3     1  UNL1        0.0078
     14 C         140.3460  137.3517  155.9151 C.3     1  UNL1        0.0164
     15 C         142.2598  133.8889  155.6056 C.ar    1  UNL1        0.0879
     16 N         142.3244  132.6991  156.5168 N.ar    1  UNL1       -0.2412
     17 C         142.6883  131.5014  155.6902 C.ar    1  UNL1        0.1060
     18 C         142.8487  131.9510  154.2682 C.ar    1  UNL1        0.0572
     19 S         142.5839  133.4265  154.2159 S.2     1  UNL1       -0.0702
     20 C         140.8105  145.1223  159.3902 C.3     1  UNL1        0.1747
     21 N         141.3842  145.6916  160.6539 N.pl3   1  UNL1       -0.3093
     22 H         142.0527  146.4129  160.6098 H       1  UNL1        0.1487
     23 C         138.4866  144.7286  164.9617 C.3     1  UNL1        0.1537
     24 N         139.6074  144.7191  163.9649 N.ar    1  UNL1       -0.2476
     25 N         139.6305  145.4534  162.6571 N.ar    1  UNL1       -0.1544
     26 C         140.9393  145.1618  161.9849 C.ar    1  UNL1        0.1500
     27 C         141.7252  144.2474  162.8772 C.ar    1  UNL1        0.0503
     28 C         143.0840  143.6285  162.7335 C.ar    1  UNL1        0.0082
     29 C         143.6196  142.7360  163.8136 C.ar    1  UNL1        0.0716
     30 C         142.7964  142.4625  165.0373 C.ar    1  UNL1        0.0054
     31 C         141.4377  143.0813  165.1810 C.ar    1  UNL1        0.0188
     32 C         140.9020  143.9738  164.1009 C.ar    1  UNL1        0.0807
     33 C         144.9784  142.1171  163.6699 C.3     1  UNL1        0.4186
     34 F         146.3372  141.4982  163.5263 F       1  UNL1       -0.1659
     35 F         144.7911  141.4030  164.9756 F       1  UNL1       -0.1659
     36 F         145.1657  142.8312  162.3642 F       1  UNL1       -0.1659
@<TRIPOS>BOND
     1    23    24    1
     2    24    25   ar
     3    25    26   ar
     4    26    21    1
     5    21    20    1
     6    20     1    1
     7     1     2    2
     8     1     3   am
     9     3     5    1
    10     5     6    1
    11     6     7    1
    12     9     7    1
    13     9    10    1
    14    10    11    1
    15    11    12    1
    16    12    15    1
    17    15    16   ar
    18    16    17   ar
    19    17    18   ar
    20    18    19   ar
    21    12    13    1
    22    13    14    1
    23     7     8    1
    24    26    27   ar
    25    27    28   ar
    26    28    29   ar
    27    29    33    1
    28    33    34    1
    29    33    35    1
    30    33    36    1
    31    29    30   ar
    32    30    31   ar
    33    31    32   ar
    34    32    24   ar
    35     8     5    1
    36    32    27   ar
    37    14     9    1
    38    19    15   ar
    39    21    22    1
    40     3     4    1
@<TRIPOS>MOLECULE
*****
 36 40 0 0 0
SMALL
GASTEIGER

@<TRIPOS>ATOM
      1 C         138.0169  139.3598  160.9661 C.2     1  UNL1        0.2425
      2 O         137.3629  140.6096  161.4763 O.2     1  UNL1       -0.2733
      3 N         138.8141  139.3952  159.6960 N.am    1  UNL1       -0.3018
      4 H         139.2433  138.5749  159.3612 H       1  UNL1        0.1495
      5 C         138.9573  140.6805  158.9361 C.3     1  UNL1        0.1035
      6 C         140.1139  141.4850  158.4212 C.3     1  UNL1        0.0933
      7 N         139.1599  142.4982  157.8613 N.3     1  UNL1       -0.2711
      8 C         138.0034  141.6936  158.3762 C.3     1  UNL1        0.0933
      9 C         139.3031  143.7834  157.1014 C.3     1  UNL1        0.0576
     10 C         138.7790  143.8884  155.6998 C.3     1  UNL1        0.0164
     11 C         138.9222  145.1736  154.9399 C.3     1  UNL1        0.0078
     12 C         139.5895  146.3540  155.5815 C.3     1  UNL1        0.0466
     13 C         140.1136  146.2490  156.9830 C.3     1  UNL1        0.0078
     14 C         139.9704  144.9637  157.7429 C.3     1  UNL1        0.0164
     15 C         139.7327  147.6392  154.8214 C.ar    1  UNL1        0.0879
     16 N         139.1587  148.9670  155.2186 N.ar    1  UNL1       -0.2412
     17 C         139.5462  149.9708  154.1735 C.ar    1  UNL1        0.1060
     18 C         140.3596  149.2635  153.1303 C.ar    1  UNL1        0.0572
     19 S         140.4748  147.8225  153.5308 S.2     1  UNL1       -0.0702
     20 C         137.8737  138.0745  161.7261 C.3     1  UNL1        0.1747
     21 N         138.6960  137.8359  162.9578 N.pl3   1  UNL1       -0.3093
     22 H         138.2563  137.5852  163.8023 H       1  UNL1        0.1487
     23 C         143.6820  137.8173  161.2202 C.3     1  UNL1        0.1537
     24 N         142.4799  137.9706  162.1042 N.ar    1  UNL1       -0.2476
     25 N         141.0582  137.6928  161.7150 N.ar    1  UNL1       -0.1544
     26 C         140.1881  137.9791  162.9029 C.ar    1  UNL1        0.1500
     27 C         141.0721  138.4339  164.0262 C.ar    1  UNL1        0.0503
     28 C         140.7702  138.8522  165.4347 C.ar    1  UNL1        0.0082
     29 C         141.8849  139.2651  166.3496 C.ar    1  UNL1        0.0716
     30 C         143.3013  139.2598  165.8559 C.ar    1  UNL1        0.0054
     31 C         143.6031  138.8416  164.4474 C.ar    1  UNL1        0.0188
     32 C         142.4885  138.4287  163.5325 C.ar    1  UNL1        0.0807
     33 C         141.5830  139.6834  167.7581 C.3     1  UNL1        0.4186
     34 F         141.2813  140.1016  169.1667 F       1  UNL1       -0.1659
     35 F         142.9756  139.3062  168.1685 F       1  UNL1       -0.1659
     36 F         140.1905  140.0605  167.3478 F       1  UNL1       -0.1659
@<TRIPOS>BOND
     1    23    24    1
     2    24    25   ar
     3    25    26   ar
     4    26    21    1
     5    21    20    1
     6    20     1    1
     7     1     2    2
     8     1     3   am
     9     3     5    1
    10     5     6    1
    11     6     7    1
    12     9     7    1
    13     9    10    1
    14    10    11    1
    15    11    12    1
    16    12    15    1
    17    15    16   ar
    18    16    17   ar
    19    17    18   ar
    20    18    19   ar
    21    12    13    1
    22    13    14    1
    23     7     8    1
    24    26    27   ar
    25    27    28   ar
    26    28    29   ar
    27    29    33    1
    28    33    34    1
    29    33    35    1
    30    33    36    1
    31    29    30   ar
    32    30    31   ar
    33    31    32   ar
    34    32    24   ar
    35     8     5    1
    36    32    27   ar
    37    14     9    1
    38    19    15   ar
    39    21    22    1
    40     3     4    1
@<TRIPOS>MOLECULE
*****
 36 40 0 0 0
SMALL
GASTEIGER

@<TRIPOS>ATOM
      1 C         142.9461  138.9066  158.3480 C.2     1  UNL1        0.2425
      2 O         144.1107  139.5040  159.0806 O.2     1  UNL1       -0.2733
      3 N         141.6955  138.5466  159.0939 N.am    1  UNL1       -0.3018
      4 H         140.9311  138.1545  158.6131 H       1  UNL1        0.1495
      5 C         141.6096  138.7841  160.5725 C.3     1  UNL1        0.1035
      6 C         141.2700  137.9391  161.7645 C.3     1  UNL1        0.0933
      7 N         141.4882  139.1198  162.6636 N.3     1  UNL1       -0.2711
      8 C         141.8277  139.9647  161.4716 C.3     1  UNL1        0.0933
      9 C         141.4023  139.3572  164.1422 C.3     1  UNL1        0.0576
     10 C         142.6214  139.7826  164.9056 C.3     1  UNL1        0.0164
     11 C         142.5356  140.0200  166.3841 C.3     1  UNL1        0.0078
     12 C         141.2305  139.8321  167.0994 C.3     1  UNL1        0.0466
     13 C         140.0114  139.4067  166.3361 C.3     1  UNL1        0.0078
     14 C         140.0973  139.1693  164.8575 C.3     1  UNL1        0.0164
     15 C         141.1448  140.0695  168.5780 C.ar    1  UNL1        0.0879
     16 N         139.9356  139.8484  169.4378 N.ar    1  UNL1       -0.2412
     17 C         140.2966  140.2120  170.8476 C.ar    1  UNL1        0.1060
     18 C         141.7288  140.6579  170.8591 C.ar    1  UNL1        0.0572
     19 S         142.2530  140.5698  169.4565 S.2     1  UNL1       -0.0702
     20 C         143.0319  138.6692  156.8694 C.3     1  UNL1        0.1747
     21 N         143.7230  137.4453  156.3452 N.pl3   1  UNL1       -0.3093
     22 H         144.5906  137.1709  156.7209 H       1  UNL1        0.1487
     23 C         141.0299  136.1165  152.0021 C.3     1  UNL1        0.1537
     24 N         141.8542  136.0287  153.2523 N.ar    1  UNL1       -0.2476
     25 N         142.2892  137.1840  154.1044 N.ar    1  UNL1       -0.1544
     26 C         143.0920  136.6395  155.2485 C.ar    1  UNL1        0.1500
     27 C         143.1530  135.1477  155.1036 C.ar    1  UNL1        0.0503
     28 C         143.8064  134.0844  155.9356 C.ar    1  UNL1        0.0082
     29 C         143.6947  132.6435  155.5339 C.ar    1  UNL1        0.0716
     30 C         142.9297  132.2661  154.3001 C.ar    1  UNL1        0.0054
     31 C         142.2763  133.3294  153.4681 C.ar    1  UNL1        0.0188
     32 C         142.3880  134.7703  153.8698 C.ar    1  UNL1        0.0807
     33 C         144.3481  131.5801  156.3659 C.3     1  UNL1        0.4186
     34 F         145.0015  130.5167  157.1979 F       1  UNL1       -0.1659
     35 F         144.9413  130.9759  155.1278 F       1  UNL1       -0.1659
     36 F         143.7549  132.1843  157.6041 F       1  UNL1       -0.1659
@<TRIPOS>BOND
     1    23    24    1
     2    24    25   ar
     3    25    26   ar
     4    26    21    1
     5    21    20    1
     6    20     1    1
     7     1     2    2
     8     1     3   am
     9     3     5    1
    10     5     6    1
    11     6     7    1
    12     9     7    1
    13     9    10    1
    14    10    11    1
    15    11    12    1
    16    12    15    1
    17    15    16   ar
    18    16    17   ar
    19    17    18   ar
    20    18    19   ar
    21    12    13    1
    22    13    14    1
    23     7     8    1
    24    26    27   ar
    25    27    28   ar
    26    28    29   ar
    27    29    33    1
    28    33    34    1
    29    33    35    1
    30    33    36    1
    31    29    30   ar
    32    30    31   ar
    33    31    32   ar
    34    32    24   ar
    35     8     5    1
    36    32    27   ar
    37    14     9    1
    38    19    15   ar
    39    21    22    1
    40     3     4    1
@<TRIPOS>MOLECULE
*****
 36 40 0 0 0
SMALL
GASTEIGER

@<TRIPOS>ATOM
      1 C         138.6235  138.8934  161.7170 C.2     1  UNL1        0.2425
      2 O         137.3471  139.2795  161.0303 O.2     1  UNL1       -0.2733
      3 N         139.8791  139.6727  161.4598 N.am    1  UNL1       -0.3018
      4 H         140.7169  139.4193  161.9105 H       1  UNL1        0.1495
      5 C         139.8582  140.8382  160.5157 C.3     1  UNL1        0.1035
      6 C         139.1909  142.1816  160.5037 C.3     1  UNL1        0.0933
      7 N         139.8285  142.4865  159.1806 N.3     1  UNL1       -0.2711
      8 C         140.4958  141.1431  159.1927 C.3     1  UNL1        0.0933
      9 C         139.8076  143.6519  158.2366 C.3     1  UNL1        0.0576
     10 C         139.0845  143.5433  156.9269 C.3     1  UNL1        0.0164
     11 C         139.0636  144.7087  155.9828 C.3     1  UNL1        0.0078
     12 C         139.7658  145.9829  156.3484 C.3     1  UNL1        0.0466
     13 C         140.4888  146.0915  157.6581 C.3     1  UNL1        0.0078
     14 C         140.5098  144.9260  158.6022 C.3     1  UNL1        0.0164
     15 C         139.7448  147.1482  155.4043 C.ar    1  UNL1        0.0879
     16 N         138.9923  148.4306  155.6032 N.ar    1  UNL1       -0.2412
     17 C         139.2550  149.3108  154.4174 C.ar    1  UNL1        0.1060
     18 C         140.1698  148.5726  153.4856 C.ar    1  UNL1        0.0572
     19 S         140.4724  147.2360  154.0955 S.2     1  UNL1       -0.0702
     20 C         138.6445  137.7279  162.6611 C.3     1  UNL1        0.1747
     21 N         138.9407  137.9460  164.1154 N.pl3   1  UNL1       -0.3093
     22 H         138.2517  137.7546  164.7922 H       1  UNL1        0.1487
     23 C         144.1044  139.0476  164.1667 C.3     1  UNL1        0.1537
     24 N         142.6600  138.9619  164.5621 N.ar    1  UNL1       -0.2476
     25 N         141.5670  138.3055  163.7718 N.ar    1  UNL1       -0.1544
     26 C         140.2865  138.4556  164.5385 C.ar    1  UNL1        0.1500
     27 C         140.5881  139.2048  165.8025 C.ar    1  UNL1        0.0503
     28 C         139.7165  139.6424  166.9421 C.ar    1  UNL1        0.0082
     29 C         140.3118  140.3930  168.0963 C.ar    1  UNL1        0.0716
     30 C         141.7787  140.7059  168.1109 C.ar    1  UNL1        0.0054
     31 C         142.6503  140.2683  166.9713 C.ar    1  UNL1        0.0188
     32 C         142.0550  139.5177  165.8171 C.ar    1  UNL1        0.0807
     33 C         139.4402  140.8307  169.2360 C.3     1  UNL1        0.4186
     34 F         138.5686  141.2683  170.3756 F       1  UNL1       -0.1659
     35 F         138.4938  139.7040  168.9448 F       1  UNL1       -0.1659
     36 F         140.3866  141.9573  169.5272 F       1  UNL1       -0.1659
@<TRIPOS>BOND
     1    23    24    1
     2    24    25   ar
     3    25    26   ar
     4    26    21    1
     5    21    20    1
     6    20     1    1
     7     1     2    2
     8     1     3   am
     9     3     5    1
    10     5     6    1
    11     6     7    1
    12     9     7    1
    13     9    10    1
    14    10    11    1
    15    11    12    1
    16    12    15    1
    17    15    16   ar
    18    16    17   ar
    19    17    18   ar
    20    18    19   ar
    21    12    13    1
    22    13    14    1
    23     7     8    1
    24    26    27   ar
    25    27    28   ar
    26    28    29   ar
    27    29    33    1
    28    33    34    1
    29    33    35    1
    30    33    36    1
    31    29    30   ar
    32    30    31   ar
    33    31    32   ar
    34    32    24   ar
    35     8     5    1
    36    32    27   ar
    37    14     9    1
    38    19    15   ar
    39    21    22    1
    40     3     4    1
@<TRIPOS>MOLECULE
*****
 36 40 0 0 0
SMALL
GASTEIGER

@<TRIPOS>ATOM
      1 C         142.7626  144.0777  163.1647 C.2     1  UNL1        0.2425
      2 O         144.1040  144.7476  163.1240 O.2     1  UNL1       -0.2733
      3 N         142.3359  143.1842  162.0379 N.am    1  UNL1       -0.3018
      4 H         141.4554  142.7445  162.0646 H       1  UNL1        0.1495
      5 C         143.2508  142.9606  160.8705 C.3     1  UNL1        0.1035
      6 C         143.1821  143.2454  159.3993 C.3     1  UNL1        0.0933
      7 N         144.5446  142.6444  159.2194 N.3     1  UNL1       -0.2711
      8 C         144.6133  142.3597  160.6905 C.3     1  UNL1        0.0933
      9 C         145.4595  142.4208  158.0519 C.3     1  UNL1        0.0576
     10 C         146.8156  143.0615  158.0283 C.3     1  UNL1        0.0164
     11 C         147.7305  142.8380  156.8609 C.3     1  UNL1        0.0078
     12 C         147.2893  141.9737  155.7170 C.3     1  UNL1        0.0466
     13 C         145.9333  141.3330  155.7406 C.3     1  UNL1        0.0078
     14 C         145.0184  141.5566  156.9081 C.3     1  UNL1        0.0164
     15 C         148.2043  141.7501  154.5496 C.ar    1  UNL1        0.0879
     16 N         149.6863  141.5292  154.6206 N.ar    1  UNL1       -0.2412
     17 C         150.1959  141.3508  153.2212 C.ar    1  UNL1        0.1060
     18 C         149.0290  141.4615  152.2852 C.ar    1  UNL1        0.0572
     19 S         147.7981  141.7083  153.1062 S.2     1  UNL1       -0.0702
     20 C         141.8476  144.3013  164.3321 C.3     1  UNL1        0.1747
     21 N         140.3671  144.1229  164.1697 N.pl3   1  UNL1       -0.3093
     22 H         139.7858  144.9096  164.0581 H       1  UNL1        0.1487
     23 C         138.0313  139.6529  162.6065 C.3     1  UNL1        0.1537
     24 N         138.6987  140.6913  163.4588 N.ar    1  UNL1       -0.2476
     25 N         139.1665  142.0406  163.0002 N.ar    1  UNL1       -0.1544
     26 C         139.7723  142.7459  164.1773 C.ar    1  UNL1        0.1500
     27 C         139.6790  141.8323  165.3634 C.ar    1  UNL1        0.0503
     28 C         140.1125  141.9927  166.7904 C.ar    1  UNL1        0.0082
     29 C         139.8824  140.8833  167.7733 C.ar    1  UNL1        0.0716
     30 C         139.2188  139.6134  167.3292 C.ar    1  UNL1        0.0054
     31 C         138.7854  139.4530  165.9022 C.ar    1  UNL1        0.0188
     32 C         139.0154  140.5625  164.9193 C.ar    1  UNL1        0.0807
     33 C         140.3159  141.0436  169.2003 C.3     1  UNL1        0.4186
     34 F         140.7494  141.2039  170.6273 F       1  UNL1       -0.1659
     35 F         140.7582  139.6106  169.2269 F       1  UNL1       -0.1659
     36 F         139.8735  142.4766  169.1737 F       1  UNL1       -0.1659
@<TRIPOS>BOND
     1    23    24    1
     2    24    25   ar
     3    25    26   ar
     4    26    21    1
     5    21    20    1
     6    20     1    1
     7     1     2    2
     8     1     3   am
     9     3     5    1
    10     5     6    1
    11     6     7    1
    12     9     7    1
    13     9    10    1
    14    10    11    1
    15    11    12    1
    16    12    15    1
    17    15    16   ar
    18    16    17   ar
    19    17    18   ar
    20    18    19   ar
    21    12    13    1
    22    13    14    1
    23     7     8    1
    24    26    27   ar
    25    27    28   ar
    26    28    29   ar
    27    29    33    1
    28    33    34    1
    29    33    35    1
    30    33    36    1
    31    29    30   ar
    32    30    31   ar
    33    31    32   ar
    34    32    24   ar
    35     8     5    1
    36    32    27   ar
    37    14     9    1
    38    19    15   ar
    39    21    22    1
    40     3     4    1
