@<TRIPOS>MOLECULE
*****
 40 44 0 0 0
SMALL
GASTEIGER

@<TRIPOS>ATOM
      1 C         138.5940  140.3604  162.3428 C.ar    1  UNL1       -0.0061
      2 C         138.2388  141.3637  163.3998 C.ar    1  UNL1       -0.0028
      3 C         138.1460  140.9395  164.8357 C.ar    1  UNL1        0.0030
      4 C         138.4085  139.5121  165.2145 C.ar    1  UNL1        0.0420
      5 C         138.7637  138.5088  164.1575 C.ar    1  UNL1        0.0030
      6 C         138.8564  138.9329  162.7217 C.ar    1  UNL1       -0.0028
      7 C         138.3158  139.0880  166.6502 C.2     1  UNL1        0.2297
      8 O         137.2244  138.1568  167.0883 O.2     1  UNL1       -0.2833
      9 C         139.3144  139.5951  167.6481 C.ar    1  UNL1        0.1867
     10 N         139.0495  139.8705  169.0986 N.ar    1  UNL1       -0.2282
     11 C         140.3246  140.3614  169.7176 C.ar    1  UNL1        0.0730
     12 C         140.5137  140.7552  171.1525 C.3     1  UNL1        0.0534
     13 C         141.3775  140.3895  168.6496 C.ar    1  UNL1        0.0567
     14 C         142.8043  140.8162  168.8291 C.3     1  UNL1        0.0517
     15 N         140.7532  139.9159  167.3705 N.ar    1  UNL1       -0.2917
     16 C         141.4460  139.7859  166.0465 C.ar    1  UNL1        0.0653
     17 C         141.9658  138.4515  165.5998 C.ar    1  UNL1        0.0199
     18 C         142.6586  138.3215  164.2758 C.ar    1  UNL1        0.0311
     19 C         142.8317  139.5258  163.3984 C.ar    1  UNL1        0.1402
     20 F         143.5245  139.3958  162.0744 F       1  UNL1       -0.2042
     21 C         142.3120  140.8601  163.8451 C.ar    1  UNL1        0.0311
     22 C         141.6192  140.9901  165.1691 C.ar    1  UNL1        0.0199
     23 C         138.6867  140.7845  160.9071 C.3     1  UNL1        0.0991
     24 C         141.5425  138.6981  158.1248 C.3     1  UNL1        0.0251
     25 C         142.0580  139.6973  159.1176 C.3     1  UNL1        0.0217
     26 C         141.1061  140.3928  160.0451 C.3     1  UNL1        0.0727
     27 N         139.6386  140.0890  159.9797 N.3     1  UNL1       -0.2689
     28 C         139.1231  139.0898  158.9867 C.3     1  UNL1        0.0727
     29 C         140.0750  138.3944  158.0593 C.3     1  UNL1        0.0217
     30 C         143.6721  135.8296  156.3966 C.ar    1  UNL1        0.0500
     31 C         144.3982  136.6116  155.3424 C.ar    1  UNL1        0.0147
     32 C         144.1724  138.0891  155.2157 C.ar    1  UNL1        0.0009
     33 C         143.2206  138.7846  156.1431 C.ar    1  UNL1       -0.0042
     34 C         142.4945  138.0026  157.1973 C.ar    1  UNL1       -0.0212
     35 C         142.7203  136.5251  157.3240 C.ar    1  UNL1        0.0104
     36 C         143.0548  131.9132  156.2223 C.3     1  UNL1        0.0949
     37 C         142.8290  133.3907  156.0955 C.2     1  UNL1        0.2266
     38 O         141.5343  133.9067  155.5411 O.2     1  UNL1       -0.2748
     39 N         143.8979  134.3521  156.5233 N.am    1  UNL1       -0.2839
     40 H         144.7477  134.0135  156.8872 H       1  UNL1        0.1549
@<TRIPOS>BOND
     1    36    37    1
     2    37    38    2
     3    37    39   am
     4    39    30    1
     5    30    31   ar
     6    31    32   ar
     7    32    33   ar
     8    33    34   ar
     9    34    24    1
    10    24    25    1
    11    25    26    1
    12    26    27    1
    13    27    23    1
    14    23     1    1
    15     1     2   ar
    16     2     3   ar
    17     3     4   ar
    18     4     7    1
    19     7     8    2
    20     7     9    1
    21     9    10   ar
    22    10    11   ar
    23    11    12    1
    24    11    13   ar
    25    13    14    1
    26    13    15   ar
    27    15    16    1
    28    16    17   ar
    29    17    18   ar
    30    18    19   ar
    31    19    20    1
    32    19    21   ar
    33    21    22   ar
    34     4     5   ar
    35     5     6   ar
    36    27    28    1
    37    28    29    1
    38    34    35   ar
    39    35    30   ar
    40    29    24    1
    41     6     1   ar
    42    15     9   ar
    43    22    16   ar
    44    39    40    1
@<TRIPOS>MOLECULE
*****
 40 44 0 0 0
SMALL
GASTEIGER

@<TRIPOS>ATOM
      1 C         143.7897  142.0982  162.2275 C.ar    1  UNL1       -0.0061
      2 C         142.6706  141.1294  161.9843 C.ar    1  UNL1       -0.0028
      3 C         142.2391  140.1931  163.0739 C.ar    1  UNL1        0.0030
      4 C         142.9266  140.2256  164.4066 C.ar    1  UNL1        0.0420
      5 C         144.0457  141.1944  164.6499 C.ar    1  UNL1        0.0030
      6 C         144.4773  142.1306  163.5603 C.ar    1  UNL1       -0.0028
      7 C         142.4950  139.2894  165.4962 C.2     1  UNL1        0.2297
      8 O         142.3302  137.8268  165.2066 O.2     1  UNL1       -0.2833
      9 C         142.2283  139.8156  166.8753 C.ar    1  UNL1        0.1867
     10 N         142.9245  139.3864  168.1327 N.ar    1  UNL1       -0.2282
     11 C         142.3450  140.1690  169.2737 C.ar    1  UNL1        0.0730
     12 C         142.7489  140.0582  170.7139 C.3     1  UNL1        0.0534
     13 C         141.2906  141.0818  168.7214 C.ar    1  UNL1        0.0567
     14 C         140.4550  142.0441  169.5125 C.3     1  UNL1        0.0517
     15 N         141.2184  140.8634  167.2391 N.ar    1  UNL1       -0.2917
     16 C         140.2981  141.5690  166.2877 C.ar    1  UNL1        0.0653
     17 C         140.5802  142.9856  165.8830 C.ar    1  UNL1        0.0199
     18 C         139.6598  143.6912  164.9317 C.ar    1  UNL1        0.0311
     19 C         138.4574  142.9802  164.3851 C.ar    1  UNL1        0.1402
     20 F         137.5370  143.6858  163.4337 F       1  UNL1       -0.2042
     21 C         138.1753  141.5637  164.7898 C.ar    1  UNL1        0.0311
     22 C         139.0957  140.8581  165.7411 C.ar    1  UNL1        0.0199
     23 C         144.2213  143.0345  161.1380 C.3     1  UNL1        0.0991
     24 C         141.2167  144.5435  158.1471 C.3     1  UNL1        0.0251
     25 C         141.0171  144.8087  159.6099 C.3     1  UNL1        0.0217
     26 C         142.0186  144.3057  160.6069 C.3     1  UNL1        0.0727
     27 N         143.2198  143.5375  160.1411 N.3     1  UNL1       -0.2689
     28 C         143.4194  143.2722  158.6782 C.3     1  UNL1        0.0727
     29 C         142.4179  143.7752  157.6813 C.3     1  UNL1        0.0217
     30 C         139.2078  146.9974  155.7611 C.ar    1  UNL1        0.0500
     31 C         138.2123  146.0525  155.1562 C.ar    1  UNL1        0.0147
     32 C         138.2181  144.6047  155.5481 C.ar    1  UNL1        0.0009
     33 C         139.2196  144.1016  156.5451 C.ar    1  UNL1       -0.0042
     34 C         140.2152  145.0465  157.1501 C.ar    1  UNL1       -0.0212
     35 C         140.2093  146.4943  156.7581 C.ar    1  UNL1        0.0104
     36 C         138.6838  150.9274  155.9351 C.3     1  UNL1        0.0949
     37 C         138.6896  149.4795  156.3271 C.2     1  UNL1        0.2266
     38 O         138.1831  149.0659  157.6771 O.2     1  UNL1       -0.2748
     39 N         139.2020  148.4452  155.3691 N.am    1  UNL1       -0.2839
     40 H         139.5344  148.7166  154.4831 H       1  UNL1        0.1549
@<TRIPOS>BOND
     1    36    37    1
     2    37    38    2
     3    37    39   am
     4    39    30    1
     5    30    31   ar
     6    31    32   ar
     7    32    33   ar
     8    33    34   ar
     9    34    24    1
    10    24    25    1
    11    25    26    1
    12    26    27    1
    13    27    23    1
    14    23     1    1
    15     1     2   ar
    16     2     3   ar
    17     3     4   ar
    18     4     7    1
    19     7     8    2
    20     7     9    1
    21     9    10   ar
    22    10    11   ar
    23    11    12    1
    24    11    13   ar
    25    13    14    1
    26    13    15   ar
    27    15    16    1
    28    16    17   ar
    29    17    18   ar
    30    18    19   ar
    31    19    20    1
    32    19    21   ar
    33    21    22   ar
    34     4     5   ar
    35     5     6   ar
    36    27    28    1
    37    28    29    1
    38    34    35   ar
    39    35    30   ar
    40    29    24    1
    41     6     1   ar
    42    15     9   ar
    43    22    16   ar
    44    39    40    1
@<TRIPOS>MOLECULE
*****
 40 44 0 0 0
SMALL
GASTEIGER

@<TRIPOS>ATOM
      1 C         143.2117  142.0678  158.4407 C.ar    1  UNL1       -0.0061
      2 C         141.8898  142.3610  157.7953 C.ar    1  UNL1       -0.0028
      3 C         140.8919  143.2366  158.4936 C.ar    1  UNL1        0.0030
      4 C         141.2160  143.8190  159.8374 C.ar    1  UNL1        0.0420
      5 C         142.5379  143.5258  160.4829 C.ar    1  UNL1        0.0030
      6 C         143.5357  142.6503  159.7846 C.ar    1  UNL1       -0.0028
      7 C         140.2181  144.6945  160.5357 C.2     1  UNL1        0.2297
      8 O         139.7530  145.9654  159.8887 O.2     1  UNL1       -0.2833
      9 C         139.6853  144.2992  161.8810 C.ar    1  UNL1        0.1867
     10 N         139.4624  145.2178  163.0457 N.ar    1  UNL1       -0.2282
     11 C         138.9212  144.4023  164.1824 C.ar    1  UNL1        0.0730
     12 C         138.5558  144.9186  165.5424 C.3     1  UNL1        0.0534
     13 C         138.8096  142.9796  163.7202 C.ar    1  UNL1        0.0567
     14 C         138.3130  141.8236  164.5369 C.3     1  UNL1        0.0517
     15 N         139.2818  142.9159  162.2978 N.ar    1  UNL1       -0.2917
     16 C         139.3403  141.6850  161.4425 C.ar    1  UNL1        0.0653
     17 C         138.2861  141.4433  160.4031 C.ar    1  UNL1        0.0199
     18 C         138.3446  140.2124  159.5478 C.ar    1  UNL1        0.0311
     19 C         139.4572  139.2233  159.7319 C.ar    1  UNL1        0.1402
     20 F         139.5157  137.9924  158.8767 F       1  UNL1       -0.2042
     21 C         140.5113  139.4650  160.7713 C.ar    1  UNL1        0.0311
     22 C         140.4528  140.6959  161.6266 C.ar    1  UNL1        0.0199
     23 C         144.2095  141.1923  157.7424 C.3     1  UNL1        0.0991
     24 C         143.0811  137.0023  156.5507 C.3     1  UNL1        0.0251
     25 C         143.8342  137.8773  155.5930 C.3     1  UNL1        0.0217
     26 C         144.2104  139.2740  155.9903 C.3     1  UNL1        0.0727
     27 N         143.8334  139.7956  157.3452 N.3     1  UNL1       -0.2689
     28 C         143.0802  138.9206  158.3028 C.3     1  UNL1        0.0727
     29 C         142.7041  137.5239  157.9056 C.3     1  UNL1        0.0217
     30 C         142.7193  133.0509  156.6261 C.ar    1  UNL1        0.0500
     31 C         141.9527  132.8122  155.3591 C.ar    1  UNL1        0.0147
     32 C         141.5621  133.9702  154.4893 C.ar    1  UNL1        0.0009
     33 C         141.9383  135.3669  154.8865 C.ar    1  UNL1       -0.0042
     34 C         142.7049  135.6055  156.1535 C.ar    1  UNL1       -0.0212
     35 C         143.0955  134.4475  157.0232 C.ar    1  UNL1        0.0104
     36 C         144.8291  130.0661  158.1722 C.3     1  UNL1        0.0949
     37 C         144.4385  131.2241  157.3024 C.2     1  UNL1        0.2266
     38 O         145.3767  131.7134  156.2391 O.2     1  UNL1       -0.2748
     39 N         143.1099  131.8929  157.4958 N.am    1  UNL1       -0.2839
     40 H         142.4941  131.5717  158.1937 H       1  UNL1        0.1549
@<TRIPOS>BOND
     1    36    37    1
     2    37    38    2
     3    37    39   am
     4    39    30    1
     5    30    31   ar
     6    31    32   ar
     7    32    33   ar
     8    33    34   ar
     9    34    24    1
    10    24    25    1
    11    25    26    1
    12    26    27    1
    13    27    23    1
    14    23     1    1
    15     1     2   ar
    16     2     3   ar
    17     3     4   ar
    18     4     7    1
    19     7     8    2
    20     7     9    1
    21     9    10   ar
    22    10    11   ar
    23    11    12    1
    24    11    13   ar
    25    13    14    1
    26    13    15   ar
    27    15    16    1
    28    16    17   ar
    29    17    18   ar
    30    18    19   ar
    31    19    20    1
    32    19    21   ar
    33    21    22   ar
    34     4     5   ar
    35     5     6   ar
    36    27    28    1
    37    28    29    1
    38    34    35   ar
    39    35    30   ar
    40    29    24    1
    41     6     1   ar
    42    15     9   ar
    43    22    16   ar
    44    39    40    1
@<TRIPOS>MOLECULE
*****
 40 44 0 0 0
SMALL
GASTEIGER

@<TRIPOS>ATOM
      1 C         140.4864  143.4284  161.7714 C.ar    1  UNL1       -0.0061
      2 C         139.9009  143.9104  163.0655 C.ar    1  UNL1       -0.0028
      3 C         140.3061  143.2661  164.3581 C.ar    1  UNL1        0.0030
      4 C         141.2967  142.1397  164.3565 C.ar    1  UNL1        0.0420
      5 C         141.8821  141.6577  163.0624 C.ar    1  UNL1        0.0030
      6 C         141.4770  142.3019  161.7698 C.ar    1  UNL1       -0.0028
      7 C         141.7018  141.4955  165.6491 C.2     1  UNL1        0.2297
      8 O         143.1424  141.4935  166.0669 O.2     1  UNL1       -0.2833
      9 C         140.6663  140.8531  166.5238 C.ar    1  UNL1        0.1867
     10 N         140.4809  141.0934  167.9928 N.ar    1  UNL1       -0.2282
     11 C         139.3344  140.2466  168.4600 C.ar    1  UNL1        0.0730
     12 C         138.8042  140.1758  169.8614 C.3     1  UNL1        0.0534
     13 C         138.8111  139.4829  167.2798 C.ar    1  UNL1        0.0567
     14 C         137.6658  138.5143  167.2937 C.3     1  UNL1        0.0517
     15 N         139.6342  139.8577  166.0831 N.ar    1  UNL1       -0.2917
     16 C         139.4565  139.3299  164.6903 C.ar    1  UNL1        0.0653
     17 C         140.3173  138.2036  164.1996 C.ar    1  UNL1        0.0199
     18 C         140.1396  137.6758  162.8069 C.ar    1  UNL1        0.0311
     19 C         139.1012  138.2741  161.9049 C.ar    1  UNL1        0.1402
     20 F         138.9234  137.7463  160.5121 F       1  UNL1       -0.2042
     21 C         138.2404  139.4002  162.3955 C.ar    1  UNL1        0.0311
     22 C         138.4181  139.9281  163.7883 C.ar    1  UNL1        0.0199
     23 C         140.0813  144.0726  160.4788 C.3     1  UNL1        0.0991
     24 C         137.8459  141.6927  157.3822 C.3     1  UNL1        0.0251
     25 C         138.6466  142.8928  156.9717 C.3     1  UNL1        0.0217
     26 C         139.3918  143.6862  158.0039 C.3     1  UNL1        0.0727
     27 N         139.3362  143.2794  159.4466 N.3     1  UNL1       -0.2689
     28 C         138.5354  142.0792  159.8571 C.3     1  UNL1        0.0727
     29 C         137.7903  141.2859  158.8249 C.3     1  UNL1        0.0217
     30 C         134.8630  139.9820  155.4008 C.ar    1  UNL1        0.0500
     31 C         135.6104  139.3127  154.2857 C.ar    1  UNL1        0.0147
     32 C         137.1030  139.4367  154.2028 C.ar    1  UNL1        0.0009
     33 C         137.8482  140.2300  155.2349 C.ar    1  UNL1       -0.0042
     34 C         137.1008  140.8993  156.3500 C.ar    1  UNL1       -0.0212
     35 C         135.6082  140.7753  156.4329 C.ar    1  UNL1        0.0104
     36 C         131.2504  138.9689  156.6939 C.3     1  UNL1        0.0949
     37 C         132.7429  139.0929  156.6110 C.2     1  UNL1        0.2266
     38 O         133.6080  138.4518  157.6554 O.2     1  UNL1       -0.2748
     39 N         133.3705  139.8580  155.4837 N.am    1  UNL1       -0.2839
     40 H         132.8027  140.2788  154.7982 H       1  UNL1        0.1549
@<TRIPOS>BOND
     1    36    37    1
     2    37    38    2
     3    37    39   am
     4    39    30    1
     5    30    31   ar
     6    31    32   ar
     7    32    33   ar
     8    33    34   ar
     9    34    24    1
    10    24    25    1
    11    25    26    1
    12    26    27    1
    13    27    23    1
    14    23     1    1
    15     1     2   ar
    16     2     3   ar
    17     3     4   ar
    18     4     7    1
    19     7     8    2
    20     7     9    1
    21     9    10   ar
    22    10    11   ar
    23    11    12    1
    24    11    13   ar
    25    13    14    1
    26    13    15   ar
    27    15    16    1
    28    16    17   ar
    29    17    18   ar
    30    18    19   ar
    31    19    20    1
    32    19    21   ar
    33    21    22   ar
    34     4     5   ar
    35     5     6   ar
    36    27    28    1
    37    28    29    1
    38    34    35   ar
    39    35    30   ar
    40    29    24    1
    41     6     1   ar
    42    15     9   ar
    43    22    16   ar
    44    39    40    1
@<TRIPOS>MOLECULE
*****
 40 44 0 0 0
SMALL
GASTEIGER

@<TRIPOS>ATOM
      1 C         138.4577  138.8673  162.7358 C.ar    1  UNL1       -0.0061
      2 C         138.0509  140.1543  163.3901 C.ar    1  UNL1       -0.0028
      3 C         138.0928  140.2821  164.8841 C.ar    1  UNL1        0.0030
      4 C         138.5416  139.1229  165.7237 C.ar    1  UNL1        0.0420
      5 C         138.9484  137.8359  165.0693 C.ar    1  UNL1        0.0030
      6 C         138.9064  137.7081  163.5754 C.ar    1  UNL1       -0.0028
      7 C         138.5835  139.2507  167.2176 C.2     1  UNL1        0.2297
      8 O         137.6230  138.4694  168.0645 O.2     1  UNL1       -0.2833
      9 C         139.5860  140.1597  167.8648 C.ar    1  UNL1        0.1867
     10 N         139.4340  140.8348  169.1956 N.ar    1  UNL1       -0.2282
     11 C         140.6705  141.6456  169.4481 C.ar    1  UNL1        0.0730
     12 C         140.9429  142.4832  170.6621 C.3     1  UNL1        0.0534
     13 C         141.5867  141.4715  168.2732 C.ar    1  UNL1        0.0567
     14 C         142.9362  142.1047  168.1062 C.3     1  UNL1        0.0517
     15 N         140.9165  140.5532  167.2946 N.ar    1  UNL1       -0.2917
     16 C         141.4781  140.1068  165.9773 C.ar    1  UNL1        0.0653
     17 C         141.3777  141.0015  164.7774 C.ar    1  UNL1        0.0199
     18 C         141.9393  140.5551  163.4601 C.ar    1  UNL1        0.0311
     19 C         142.6014  139.2142  163.3427 C.ar    1  UNL1        0.1402
     20 F         143.1630  138.7678  162.0254 F       1  UNL1       -0.2042
     21 C         142.7018  138.3197  164.5425 C.ar    1  UNL1        0.0311
     22 C         142.1401  138.7660  165.8599 C.ar    1  UNL1        0.0199
     23 C         138.4157  138.7395  161.2418 C.3     1  UNL1        0.0991
     24 C         140.3378  141.8842  158.6599 C.3     1  UNL1        0.0251
     25 C         138.8681  141.9495  158.9524 C.3     1  UNL1        0.0217
     26 C         138.2273  140.9013  159.8131 C.3     1  UNL1        0.0727
     27 N         139.0564  139.7878  160.3812 N.3     1  UNL1       -0.2689
     28 C         140.5262  139.7225  160.0886 C.3     1  UNL1        0.0727
     29 C         141.1668  140.7707  159.2280 C.3     1  UNL1        0.0217
     30 C         141.0458  145.3660  156.8918 C.ar    1  UNL1        0.0500
     31 C         142.2599  145.0290  156.0780 C.ar    1  UNL1        0.0147
     32 C         142.8333  143.6437  156.1247 C.ar    1  UNL1        0.0009
     33 C         142.1926  142.5954  156.9853 C.ar    1  UNL1       -0.0042
     34 C         140.9785  142.9325  157.7992 C.ar    1  UNL1       -0.0212
     35 C         140.4051  144.3178  157.7524 C.ar    1  UNL1        0.0104
     36 C         138.6848  148.4180  155.9637 C.3     1  UNL1        0.0949
     37 C         139.2582  147.0327  156.0105 C.2     1  UNL1        0.2266
     38 O         138.6174  145.9287  155.2226 O.2     1  UNL1       -0.2748
     39 N         140.4724  146.7513  156.8450 N.am    1  UNL1       -0.2839
     40 H         140.8930  147.4759  157.3621 H       1  UNL1        0.1549
@<TRIPOS>BOND
     1    36    37    1
     2    37    38    2
     3    37    39   am
     4    39    30    1
     5    30    31   ar
     6    31    32   ar
     7    32    33   ar
     8    33    34   ar
     9    34    24    1
    10    24    25    1
    11    25    26    1
    12    26    27    1
    13    27    23    1
    14    23     1    1
    15     1     2   ar
    16     2     3   ar
    17     3     4   ar
    18     4     7    1
    19     7     8    2
    20     7     9    1
    21     9    10   ar
    22    10    11   ar
    23    11    12    1
    24    11    13   ar
    25    13    14    1
    26    13    15   ar
    27    15    16    1
    28    16    17   ar
    29    17    18   ar
    30    18    19   ar
    31    19    20    1
    32    19    21   ar
    33    21    22   ar
    34     4     5   ar
    35     5     6   ar
    36    27    28    1
    37    28    29    1
    38    34    35   ar
    39    35    30   ar
    40    29    24    1
    41     6     1   ar
    42    15     9   ar
    43    22    16   ar
    44    39    40    1
@<TRIPOS>MOLECULE
*****
 40 44 0 0 0
SMALL
GASTEIGER

@<TRIPOS>ATOM
      1 C         138.1960  140.7468  162.4724 C.ar    1  UNL1       -0.0061
      2 C         138.4500  139.2852  162.6945 C.ar    1  UNL1       -0.0028
      3 C         138.4985  138.7359  164.0895 C.ar    1  UNL1        0.0030
      4 C         138.2930  139.6481  165.2623 C.ar    1  UNL1        0.0420
      5 C         138.0390  141.1097  165.0402 C.ar    1  UNL1        0.0030
      6 C         137.9905  141.6590  163.6453 C.ar    1  UNL1       -0.0028
      7 C         138.3415  139.0988  166.6572 C.2     1  UNL1        0.2297
      8 O         137.3597  138.0480  167.0840 O.2     1  UNL1       -0.2833
      9 C         139.3716  139.6002  167.6254 C.ar    1  UNL1        0.1867
     10 N         139.1581  139.8508  169.0888 N.ar    1  UNL1       -0.2282
     11 C         140.4507  140.3446  169.6680 C.ar    1  UNL1        0.0730
     12 C         140.6891  140.7182  171.1010 C.3     1  UNL1        0.0534
     13 C         141.4631  140.3991  168.5625 C.ar    1  UNL1        0.0567
     14 C         142.8916  140.8369  168.6960 C.3     1  UNL1        0.0517
     15 N         140.7962  139.9391  167.3001 N.ar    1  UNL1       -0.2917
     16 C         141.4408  139.8360  165.9495 C.ar    1  UNL1        0.0653
     17 C         141.6384  141.0680  165.1169 C.ar    1  UNL1        0.0199
     18 C         142.2830  140.9650  163.7663 C.ar    1  UNL1        0.0311
     19 C         142.7298  139.6300  163.2485 C.ar    1  UNL1        0.1402
     20 F         143.3744  139.5270  161.8979 F       1  UNL1       -0.2042
     21 C         142.5322  138.3981  164.0811 C.ar    1  UNL1        0.0311
     22 C         141.8876  138.5012  165.4316 C.ar    1  UNL1        0.0199
     23 C         138.1475  141.2961  161.0775 C.3     1  UNL1        0.0991
     24 C         141.1649  139.9491  158.0228 C.3     1  UNL1        0.0251
     25 C         139.7091  139.6489  157.8220 C.3     1  UNL1        0.0217
     26 C         138.7033  140.0979  158.8402 C.3     1  UNL1        0.0727
     27 N         139.1533  140.8471  160.0593 N.3     1  UNL1       -0.2689
     28 C         140.6092  141.1474  160.2601 C.3     1  UNL1        0.0727
     29 C         141.6150  140.6984  159.2419 C.3     1  UNL1        0.0217
     30 C         144.5876  139.5559  156.0529 C.ar    1  UNL1        0.0500
     31 C         144.1825  138.6023  154.9683 C.ar    1  UNL1        0.0147
     32 C         142.7715  138.0976  154.9018 C.ar    1  UNL1        0.0009
     33 C         141.7657  138.5465  155.9200 C.ar    1  UNL1       -0.0042
     34 C         142.1708  139.5001  157.0046 C.ar    1  UNL1       -0.0212
     35 C         143.5818  140.0048  157.0710 C.ar    1  UNL1        0.0104
     36 C         147.7460  141.9245  155.6480 C.3     1  UNL1        0.0949
     37 C         146.3350  141.4198  155.5816 C.2     1  UNL1        0.2266
     38 O         145.2605  142.2745  154.9773 O.2     1  UNL1       -0.2748
     39 N         145.9986  140.0606  156.1193 N.am    1  UNL1       -0.2839
     40 H         146.7039  139.4997  156.5159 H       1  UNL1        0.1549
@<TRIPOS>BOND
     1    36    37    1
     2    37    38    2
     3    37    39   am
     4    39    30    1
     5    30    31   ar
     6    31    32   ar
     7    32    33   ar
     8    33    34   ar
     9    34    24    1
    10    24    25    1
    11    25    26    1
    12    26    27    1
    13    27    23    1
    14    23     1    1
    15     1     2   ar
    16     2     3   ar
    17     3     4   ar
    18     4     7    1
    19     7     8    2
    20     7     9    1
    21     9    10   ar
    22    10    11   ar
    23    11    12    1
    24    11    13   ar
    25    13    14    1
    26    13    15   ar
    27    15    16    1
    28    16    17   ar
    29    17    18   ar
    30    18    19   ar
    31    19    20    1
    32    19    21   ar
    33    21    22   ar
    34     4     5   ar
    35     5     6   ar
    36    27    28    1
    37    28    29    1
    38    34    35   ar
    39    35    30   ar
    40    29    24    1
    41     6     1   ar
    42    15     9   ar
    43    22    16   ar
    44    39    40    1
@<TRIPOS>MOLECULE
*****
 40 44 0 0 0
SMALL
GASTEIGER

@<TRIPOS>ATOM
      1 C         143.0795  140.1893  162.0882 C.ar    1  UNL1       -0.0061
      2 C         141.8319  139.7255  162.7798 C.ar    1  UNL1       -0.0028
      3 C         141.8732  139.3559  164.2331 C.ar    1  UNL1        0.0030
      4 C         143.1620  139.4502  164.9946 C.ar    1  UNL1        0.0420
      5 C         144.4096  139.9140  164.3030 C.ar    1  UNL1        0.0030
      6 C         144.3684  140.2835  162.8498 C.ar    1  UNL1       -0.0028
      7 C         143.2032  139.0807  166.4478 C.2     1  UNL1        0.2297
      8 O         144.0678  137.9447  166.9086 O.2     1  UNL1       -0.2833
      9 C         142.3799  139.8470  167.4402 C.ar    1  UNL1        0.1867
     10 N         141.7142  139.2796  168.6588 N.ar    1  UNL1       -0.2282
     11 C         141.0006  140.3972  169.3600 C.ar    1  UNL1        0.0730
     12 C         140.2025  140.2777  170.6243 C.3     1  UNL1        0.0534
     13 C         141.2251  141.6553  168.5747 C.ar    1  UNL1        0.0567
     14 C         140.6910  143.0148  168.9160 C.3     1  UNL1        0.0517
     15 N         142.0776  141.3154  167.3882 N.ar    1  UNL1       -0.2917
     16 C         142.5455  142.2752  166.3347 C.ar    1  UNL1        0.0653
     17 C         143.9483  142.8052  166.3729 C.ar    1  UNL1        0.0199
     18 C         144.4163  143.7650  165.3195 C.ar    1  UNL1        0.0311
     19 C         143.4816  144.1947  164.2279 C.ar    1  UNL1        0.1402
     20 F         143.9496  145.1545  163.1744 F       1  UNL1       -0.2042
     21 C         142.0789  143.6647  164.1896 C.ar    1  UNL1        0.0311
     22 C         141.6109  142.7049  165.2431 C.ar    1  UNL1        0.0199
     23 C         143.0383  140.5588  160.6351 C.3     1  UNL1        0.0991
     24 C         142.5402  137.3570  157.5126 C.3     1  UNL1        0.0251
     25 C         142.8100  136.9783  158.9386 C.3     1  UNL1        0.0217
     26 C         142.9761  138.0456  159.9795 C.3     1  UNL1        0.0727
     27 N         142.8723  139.4915  159.5943 N.3     1  UNL1       -0.2689
     28 C         142.6024  139.8702  158.1681 C.3     1  UNL1        0.0727
     29 C         142.4363  138.8029  157.1273 C.3     1  UNL1        0.0217
     30 C         143.1432  134.0499  155.4031 C.ar    1  UNL1        0.0500
     31 C         142.0420  134.1552  154.3900 C.ar    1  UNL1        0.0147
     32 C         141.1069  135.3277  154.4178 C.ar    1  UNL1        0.0009
     33 C         141.2730  136.3950  155.4586 C.ar    1  UNL1       -0.0042
     34 C         142.3741  136.2897  156.4717 C.ar    1  UNL1       -0.0212
     35 C         143.3092  135.1172  156.4439 C.ar    1  UNL1        0.0104
     36 C         144.7452  130.5110  156.2152 C.3     1  UNL1        0.0949
     37 C         143.8101  131.6835  156.2429 C.2     1  UNL1        0.2266
     38 O         142.6067  131.6621  157.1383 O.2     1  UNL1       -0.2748
     39 N         144.0783  132.8774  155.3754 N.am    1  UNL1       -0.2839
     40 H         144.8680  132.8914  154.7878 H       1  UNL1        0.1549
@<TRIPOS>BOND
     1    36    37    1
     2    37    38    2
     3    37    39   am
     4    39    30    1
     5    30    31   ar
     6    31    32   ar
     7    32    33   ar
     8    33    34   ar
     9    34    24    1
    10    24    25    1
    11    25    26    1
    12    26    27    1
    13    27    23    1
    14    23     1    1
    15     1     2   ar
    16     2     3   ar
    17     3     4   ar
    18     4     7    1
    19     7     8    2
    20     7     9    1
    21     9    10   ar
    22    10    11   ar
    23    11    12    1
    24    11    13   ar
    25    13    14    1
    26    13    15   ar
    27    15    16    1
    28    16    17   ar
    29    17    18   ar
    30    18    19   ar
    31    19    20    1
    32    19    21   ar
    33    21    22   ar
    34     4     5   ar
    35     5     6   ar
    36    27    28    1
    37    28    29    1
    38    34    35   ar
    39    35    30   ar
    40    29    24    1
    41     6     1   ar
    42    15     9   ar
    43    22    16   ar
    44    39    40    1
@<TRIPOS>MOLECULE
*****
 40 44 0 0 0
SMALL
GASTEIGER

@<TRIPOS>ATOM
      1 C         141.2276  143.4962  162.5745 C.ar    1  UNL1       -0.0061
      2 C         141.2545  142.0177  162.3228 C.ar    1  UNL1       -0.0028
      3 C         140.6712  141.0743  163.3327 C.ar    1  UNL1        0.0030
      4 C         140.0611  141.6093  164.5942 C.ar    1  UNL1        0.0420
      5 C         140.0343  143.0878  164.8459 C.ar    1  UNL1        0.0030
      6 C         140.6175  144.0312  163.8361 C.ar    1  UNL1       -0.0028
      7 C         139.4779  140.6659  165.6040 C.2     1  UNL1        0.2297
      8 O         138.2798  139.8356  165.2504 O.2     1  UNL1       -0.2833
      9 C         140.0928  140.5528  166.9675 C.ar    1  UNL1        0.1867
     10 N         139.3592  140.2695  168.2448 N.ar    1  UNL1       -0.2282
     11 C         140.3623  140.2447  169.3599 C.ar    1  UNL1        0.0730
     12 C         140.0642  139.9956  170.8086 C.3     1  UNL1        0.0534
     13 C         141.7158  140.5128  168.7717 C.ar    1  UNL1        0.0567
     14 C         143.0089  140.5789  169.5290 C.3     1  UNL1        0.0517
     15 N         141.5494  140.7032  167.2931 N.ar    1  UNL1       -0.2917
     16 C         142.6467  140.9931  166.3124 C.ar    1  UNL1        0.0653
     17 C         143.2386  139.8806  165.4988 C.ar    1  UNL1        0.0199
     18 C         144.3360  140.1705  164.5180 C.ar    1  UNL1        0.0311
     19 C         144.8414  141.5728  164.3510 C.ar    1  UNL1        0.1402
     20 F         145.9387  141.8628  163.3703 F       1  UNL1       -0.2042
     21 C         144.2495  142.6853  165.1646 C.ar    1  UNL1        0.0311
     22 C         143.1522  142.3954  166.1453 C.ar    1  UNL1        0.0199
     23 C         141.8108  144.4396  161.5646 C.3     1  UNL1        0.0991
     24 C         143.9639  142.8252  157.9580 C.3     1  UNL1        0.0251
     25 C         142.7431  143.6789  157.7828 C.3     1  UNL1        0.0217
     26 C         142.0254  144.2171  158.9850 C.3     1  UNL1        0.0727
     27 N         142.5285  143.9014  160.3624 N.3     1  UNL1       -0.2689
     28 C         143.7493  143.0476  160.5376 C.3     1  UNL1        0.0727
     29 C         144.4670  142.5095  159.3354 C.3     1  UNL1        0.0217
     30 C         146.8826  141.5309  155.6009 C.ar    1  UNL1        0.0500
     31 C         146.1170  141.2107  154.3514 C.ar    1  UNL1        0.0147
     32 C         144.6337  141.4286  154.3041 C.ar    1  UNL1        0.0009
     33 C         143.9160  141.9668  155.5062 C.ar    1  UNL1       -0.0042
     34 C         144.6816  142.2870  156.7557 C.ar    1  UNL1       -0.0212
     35 C         146.1649  142.0690  156.8031 C.ar    1  UNL1        0.0104
     36 C         150.7514  141.8751  154.7859 C.3     1  UNL1        0.0949
     37 C         149.2681  142.0931  154.7386 C.2     1  UNL1        0.2266
     38 O         148.6868  143.0913  153.7815 O.2     1  UNL1       -0.2748
     39 N         148.3660  141.3129  155.6483 N.am    1  UNL1       -0.2839
     40 H         148.7474  140.6578  156.2764 H       1  UNL1        0.1549
@<TRIPOS>BOND
     1    36    37    1
     2    37    38    2
     3    37    39   am
     4    39    30    1
     5    30    31   ar
     6    31    32   ar
     7    32    33   ar
     8    33    34   ar
     9    34    24    1
    10    24    25    1
    11    25    26    1
    12    26    27    1
    13    27    23    1
    14    23     1    1
    15     1     2   ar
    16     2     3   ar
    17     3     4   ar
    18     4     7    1
    19     7     8    2
    20     7     9    1
    21     9    10   ar
    22    10    11   ar
    23    11    12    1
    24    11    13   ar
    25    13    14    1
    26    13    15   ar
    27    15    16    1
    28    16    17   ar
    29    17    18   ar
    30    18    19   ar
    31    19    20    1
    32    19    21   ar
    33    21    22   ar
    34     4     5   ar
    35     5     6   ar
    36    27    28    1
    37    28    29    1
    38    34    35   ar
    39    35    30   ar
    40    29    24    1
    41     6     1   ar
    42    15     9   ar
    43    22    16   ar
    44    39    40    1
@<TRIPOS>MOLECULE
*****
 40 44 0 0 0
SMALL
GASTEIGER

@<TRIPOS>ATOM
      1 C         143.2913  142.2509  158.0462 C.ar    1  UNL1       -0.0061
      2 C         142.1967  143.2347  158.3359 C.ar    1  UNL1       -0.0028
      3 C         142.0714  143.8356  159.7046 C.ar    1  UNL1        0.0030
      4 C         143.0406  143.4527  160.7835 C.ar    1  UNL1        0.0420
      5 C         144.1351  142.4689  160.4937 C.ar    1  UNL1        0.0030
      6 C         144.2605  141.8680  159.1251 C.ar    1  UNL1       -0.0028
      7 C         142.9152  144.0536  162.1521 C.2     1  UNL1        0.2297
      8 O         144.0251  144.8974  162.7053 O.2     1  UNL1       -0.2833
      9 C         141.6798  143.8107  162.9676 C.ar    1  UNL1        0.1867
     10 N         140.9280  144.8408  163.7573 N.ar    1  UNL1       -0.2282
     11 C         139.7629  144.1618  164.4143 C.ar    1  UNL1        0.0730
     12 C         138.7449  144.8173  165.2994 C.3     1  UNL1        0.0534
     13 C         139.7947  142.7120  164.0306 C.ar    1  UNL1        0.0567
     14 C         138.8140  141.6633  164.4648 C.3     1  UNL1        0.0517
     15 N         140.9794  142.4950  163.1365 N.ar    1  UNL1       -0.2917
     16 C         141.3914  141.1912  162.5196 C.ar    1  UNL1        0.0653
     17 C         140.7147  140.7046  161.2724 C.ar    1  UNL1        0.0199
     18 C         141.1266  139.4009  160.6556 C.ar    1  UNL1        0.0311
     19 C         142.2152  138.5837  161.2858 C.ar    1  UNL1        0.1402
     20 F         142.6272  137.2800  160.6690 F       1  UNL1       -0.2042
     21 C         142.8919  139.0703  162.5329 C.ar    1  UNL1        0.0311
     22 C         142.4799  140.3741  163.1498 C.ar    1  UNL1        0.0199
     23 C         143.4167  141.6500  156.6775 C.3     1  UNL1        0.0991
     24 C         142.6866  137.2505  156.0764 C.3     1  UNL1        0.0251
     25 C         141.7231  138.0669  156.8857 C.3     1  UNL1        0.0217
     26 C         141.9664  139.5335  157.0861 C.3     1  UNL1        0.0727
     27 N         143.1733  140.1835  156.4772 N.3     1  UNL1       -0.2689
     28 C         144.1369  139.3670  155.6679 C.3     1  UNL1        0.0727
     29 C         143.8936  137.9006  155.4675 C.3     1  UNL1        0.0217
     30 C         142.7426  133.3256  156.6614 C.ar    1  UNL1        0.0500
     31 C         141.9567  132.8510  155.4753 C.ar    1  UNL1        0.0147
     32 C         141.4140  133.8429  154.4895 C.ar    1  UNL1        0.0009
     33 C         141.6573  135.3093  154.6898 C.ar    1  UNL1       -0.0042
     34 C         142.4433  135.7840  155.8760 C.ar    1  UNL1       -0.0212
     35 C         142.9859  134.7921  156.8618 C.ar    1  UNL1        0.0104
     36 C         145.0811  130.5804  158.3181 C.3     1  UNL1        0.0949
     37 C         144.5385  131.5722  157.3323 C.2     1  UNL1        0.2266
     38 O         145.2493  131.8025  156.0316 O.2     1  UNL1       -0.2748
     39 N         143.2852  132.3338  157.6472 N.am    1  UNL1       -0.2839
     40 H         142.8187  132.1826  158.5009 H       1  UNL1        0.1549
@<TRIPOS>BOND
     1    36    37    1
     2    37    38    2
     3    37    39   am
     4    39    30    1
     5    30    31   ar
     6    31    32   ar
     7    32    33   ar
     8    33    34   ar
     9    34    24    1
    10    24    25    1
    11    25    26    1
    12    26    27    1
    13    27    23    1
    14    23     1    1
    15     1     2   ar
    16     2     3   ar
    17     3     4   ar
    18     4     7    1
    19     7     8    2
    20     7     9    1
    21     9    10   ar
    22    10    11   ar
    23    11    12    1
    24    11    13   ar
    25    13    14    1
    26    13    15   ar
    27    15    16    1
    28    16    17   ar
    29    17    18   ar
    30    18    19   ar
    31    19    20    1
    32    19    21   ar
    33    21    22   ar
    34     4     5   ar
    35     5     6   ar
    36    27    28    1
    37    28    29    1
    38    34    35   ar
    39    35    30   ar
    40    29    24    1
    41     6     1   ar
    42    15     9   ar
    43    22    16   ar
    44    39    40    1
