@<TRIPOS>MOLECULE
*****
 51 58 0 0 0
SMALL
GASTEIGER

@<TRIPOS>ATOM
      1 C         143.4911  140.7977  156.3225 C.ar    1  UNL1        0.1063
      2 C         142.6735  141.5201  157.3518 C.ar    1  UNL1        0.0210
      3 C         143.3147  142.5554  158.2275 C.ar    1  UNL1        0.0186
      4 C         144.7736  142.8683  158.0739 C.ar    1  UNL1        0.0784
      5 N         145.5914  142.1459  157.0445 N.ar    1  UNL1       -0.2911
      6 C         147.0502  142.4588  156.8910 C.3     1  UNL1        0.1336
      7 C         144.9501  141.1105  156.1688 C.ar    1  UNL1        0.2744
      8 O         145.7677  140.3881  155.1395 O.2     1  UNL1       -0.2656
      9 C         142.4970  143.2779  159.2568 C.ar    1  UNL1        0.0041
     10 C         141.7937  144.5527  158.8963 C.ar    1  UNL1        0.0206
     11 C         140.9759  145.2752  159.9256 C.ar    1  UNL1        0.1003
     12 N         140.8616  144.7226  161.3155 N.ar    1  UNL1       -0.2290
     13 C         141.5649  143.4477  161.6759 C.ar    1  UNL1        0.1360
     14 C         142.3826  142.7253  160.6466 C.ar    1  UNL1        0.0390
     15 N         141.4506  142.8952  163.0657 N.am    1  UNL1       -0.2373
     16 C         140.2057  142.1710  163.4849 C.3     1  UNL1        0.1244
     17 C         140.0913  141.6184  164.8748 C.3     1  UNL1        0.1277
     18 N         141.2219  141.7901  165.8455 N.ar    1  UNL1       -0.3256
     19 C         142.4669  142.5143  165.4263 C.ar    1  UNL1        0.1140
     20 C         143.4096  142.5290  166.5930 C.ar    1  UNL1        0.0187
     21 C         142.7473  141.8138  167.7331 C.ar    1  UNL1       -0.0089
     22 C         141.3953  141.3572  167.2711 C.ar    1  UNL1        0.0333
     23 C         140.7329  140.6420  168.4113 C.3     1  UNL1        0.0438
     24 C         141.6757  140.6567  169.5779 C.3     1  UNL1        0.0096
     25 C         140.5800  139.9026  170.2712 C.3     1  UNL1        0.0007
     26 C         142.3893  140.5137  170.8894 C.3     1  UNL1        0.0007
     27 C         142.9206  141.3809  169.1588 C.3     1  UNL1        0.0279
     28 C         142.5812  143.0669  164.0365 C.2     1  UNL1        0.2697
     29 O         143.8261  143.7910  163.6173 O.2     1  UNL1       -0.2679
     30 C         143.0860  141.4504  161.0071 C.3     1  UNL1        0.1664
     31 O         144.4892  141.4916  161.5359 O.3     1  UNL1       -0.3771
     32 H         145.0861  141.8162  160.8437 H       1  UNL1        0.2109
     33 N         142.8498  139.7623  155.4468 N.pl3   1  UNL1       -0.2942
     34 H         142.3313  140.0385  154.6568 H       1  UNL1        0.1537
     35 C         143.2964  135.3939  156.4308 C.ar    1  UNL1        0.0674
     36 C         144.1196  136.0039  155.3352 C.ar    1  UNL1        0.0190
     37 C         143.9708  137.4600  155.0072 C.ar    1  UNL1        0.0357
     38 C         142.9987  138.3062  155.7748 C.ar    1  UNL1        0.1324
     39 N         142.1755  137.6962  156.8703 N.ar    1  UNL1       -0.2278
     40 C         142.3243  136.2400  157.1984 C.ar    1  UNL1        0.1147
     41 C         141.3778  133.3938  155.2824 C.3     1  UNL1        0.0229
     42 C         142.4859  132.9379  156.1845 C.3     1  UNL1        0.0889
     43 C         142.6348  131.4817  156.5126 C.3     1  UNL1        0.0921
     44 N         143.7429  131.0256  157.4147 N.3     1  UNL1       -0.2668
     45 C         144.7022  132.0256  157.9890 C.3     1  UNL1        0.0939
     46 C         144.5534  133.4817  157.6610 C.3     1  UNL1        0.1081
     47 N         143.4452  133.9378  156.7588 N.pl3   1  UNL1       -0.3051
     48 C         143.8918  129.5695  157.7428 C.3     1  UNL1        0.1173
     49 C         143.9058  128.2988  156.9459 C.3     1  UNL1        0.1606
     50 O         144.1024  127.5103  158.2068 O.3     1  UNL1       -0.3507
     51 C         144.0884  128.7810  159.0036 C.3     1  UNL1        0.1606
@<TRIPOS>BOND
     1    42    41    1
     2    42    43    1
     3    43    44    1
     4    44    48    1
     5    48    49    1
     6    49    50    1
     7    50    51    1
     8    44    45    1
     9    45    46    1
    10    46    47    1
    11    47    35    1
    12    35    36   ar
    13    36    37   ar
    14    37    38   ar
    15    38    33    1
    16    33     1    1
    17     1     2   ar
    18     2     3   ar
    19     3     9    1
    20     9    10   ar
    21    10    11   ar
    22    11    12   ar
    23    12    13   ar
    24    13    15    1
    25    15    16    1
    26    16    17    1
    27    17    18    1
    28    18    19   ar
    29    19    20   ar
    30    20    21   ar
    31    21    22   ar
    32    22    23    1
    33    23    24    1
    34    24    25    1
    35    24    26    1
    36    24    27    1
    37    19    28    1
    38    28    29    2
    39    13    14   ar
    40    14    30    1
    41    30    31    1
    42     3     4   ar
    43     4     5   ar
    44     5     6    1
    45     5     7   ar
    46     7     8    2
    47    38    39   ar
    48    39    40   ar
    49    47    42    1
    50    40    35   ar
    51    51    48    1
    52     7     1   ar
    53    14     9   ar
    54    28    15   am
    55    22    18   ar
    56    27    21    1
    57    33    34    1
    58    31    32    1
@<TRIPOS>MOLECULE
*****
 51 58 0 0 0
SMALL
GASTEIGER

@<TRIPOS>ATOM
      1 C         143.5028  142.9684  158.9165 C.ar    1  UNL1        0.1063
      2 C         143.7651  142.0593  157.7526 C.ar    1  UNL1        0.0210
      3 C         142.7964  142.0070  156.6086 C.ar    1  UNL1        0.0186
      4 C         141.5654  142.8638  156.6284 C.ar    1  UNL1        0.0784
      5 N         141.3031  143.7730  157.7923 N.ar    1  UNL1       -0.2911
      6 C         140.0721  144.6298  157.8120 C.3     1  UNL1        0.1336
      7 C         142.2718  143.8253  158.9363 C.ar    1  UNL1        0.2744
      8 O         142.0095  144.7344  160.1002 O.2     1  UNL1       -0.2656
      9 C         143.0588  141.0978  155.4446 C.ar    1  UNL1        0.0041
     10 C         143.7055  141.6364  154.2031 C.ar    1  UNL1        0.0206
     11 C         143.9679  140.7272  153.0392 C.ar    1  UNL1        0.1003
     12 N         143.5835  139.2794  153.1170 N.ar    1  UNL1       -0.2290
     13 C         142.9367  138.7408  154.3586 C.ar    1  UNL1        0.1360
     14 C         142.6743  139.6500  155.5224 C.ar    1  UNL1        0.0390
     15 N         142.5522  137.2930  154.4364 N.am    1  UNL1       -0.2373
     16 C         141.2579  136.8274  153.8382 C.3     1  UNL1        0.1244
     17 C         140.8735  135.3796  153.9160 C.3     1  UNL1        0.1277
     18 N         141.7834  134.3973  154.5921 N.ar    1  UNL1       -0.3256
     19 C         143.0778  134.8629  155.1903 C.ar    1  UNL1        0.1140
     20 C         143.7664  133.6723  155.7892 C.ar    1  UNL1        0.0187
     21 C         142.8975  132.4711  155.5610 C.ar    1  UNL1       -0.0089
     22 C         141.6720  132.9191  154.8211 C.ar    1  UNL1        0.0333
     23 C         140.8032  131.7178  154.5930 C.3     1  UNL1        0.0438
     24 C         141.4917  130.5273  155.1918 C.3     1  UNL1        0.0096
     25 C         140.2888  129.7803  154.6971 C.3     1  UNL1        0.0007
     26 C         141.9288  129.1807  155.6872 C.3     1  UNL1        0.0007
     27 C         142.7861  130.9928  155.7901 C.3     1  UNL1        0.0279
     28 C         143.4622  136.3107  155.1125 C.2     1  UNL1        0.2697
     29 O         144.7565  136.7762  155.7108 O.2     1  UNL1       -0.2679
     30 C         142.0275  139.1114  156.7641 C.3     1  UNL1        0.1664
     31 O         142.8530  138.3872  157.7860 O.3     1  UNL1       -0.3771
     32 H         143.1866  137.5599  157.4049 H       1  UNL1        0.2109
     33 N         144.4715  143.0207  160.0605 N.pl3   1  UNL1       -0.2942
     34 H         145.4354  143.1176  159.8854 H       1  UNL1        0.1537
     35 C         142.9715  142.7345  164.2936 C.ar    1  UNL1        0.0674
     36 C         143.8000  143.9108  163.8694 C.ar    1  UNL1        0.0190
     37 C         144.3000  144.0062  162.4584 C.ar    1  UNL1        0.0357
     38 C         143.9714  142.9252  161.4716 C.ar    1  UNL1        0.1324
     39 N         143.1430  141.7490  161.8958 N.ar    1  UNL1       -0.2278
     40 C         142.6429  141.6536  163.3068 C.ar    1  UNL1        0.1147
     41 C         140.0877  143.2925  164.9041 C.3     1  UNL1        0.0229
     42 C         141.0296  142.9181  166.0098 C.3     1  UNL1        0.0889
     43 C         140.5297  142.8228  167.4208 C.3     1  UNL1        0.0921
     44 N         141.4715  142.4484  168.5265 N.3     1  UNL1       -0.2668
     45 C         142.9134  142.1695  168.2213 C.3     1  UNL1        0.0939
     46 C         143.4134  142.2648  166.8103 C.3     1  UNL1        0.1081
     47 N         142.4715  142.6392  165.7046 N.pl3   1  UNL1       -0.3051
     48 C         140.9716  142.3531  169.9376 C.3     1  UNL1        0.1173
     49 C         139.7796  142.8821  170.6786 C.3     1  UNL1        0.1606
     50 O         140.2647  142.2181  171.9331 O.3     1  UNL1       -0.3507
     51 C         141.4567  141.6890  171.1921 C.3     1  UNL1        0.1606
@<TRIPOS>BOND
     1    42    41    1
     2    42    43    1
     3    43    44    1
     4    44    48    1
     5    48    49    1
     6    49    50    1
     7    50    51    1
     8    44    45    1
     9    45    46    1
    10    46    47    1
    11    47    35    1
    12    35    36   ar
    13    36    37   ar
    14    37    38   ar
    15    38    33    1
    16    33     1    1
    17     1     2   ar
    18     2     3   ar
    19     3     9    1
    20     9    10   ar
    21    10    11   ar
    22    11    12   ar
    23    12    13   ar
    24    13    15    1
    25    15    16    1
    26    16    17    1
    27    17    18    1
    28    18    19   ar
    29    19    20   ar
    30    20    21   ar
    31    21    22   ar
    32    22    23    1
    33    23    24    1
    34    24    25    1
    35    24    26    1
    36    24    27    1
    37    19    28    1
    38    28    29    2
    39    13    14   ar
    40    14    30    1
    41    30    31    1
    42     3     4   ar
    43     4     5   ar
    44     5     6    1
    45     5     7   ar
    46     7     8    2
    47    38    39   ar
    48    39    40   ar
    49    47    42    1
    50    40    35   ar
    51    51    48    1
    52     7     1   ar
    53    14     9   ar
    54    28    15   am
    55    22    18   ar
    56    27    21    1
    57    33    34    1
    58    31    32    1
@<TRIPOS>MOLECULE
*****
 51 58 0 0 0
SMALL
GASTEIGER

@<TRIPOS>ATOM
      1 C         138.5474  140.4051  154.7261 C.ar    1  UNL1        0.1063
      2 C         139.2522  141.4414  155.5503 C.ar    1  UNL1        0.0210
      3 C         138.4937  142.2216  156.5828 C.ar    1  UNL1        0.0186
      4 C         137.0306  141.9656  156.7910 C.ar    1  UNL1        0.0784
      5 N         136.3257  140.9293  155.9667 N.ar    1  UNL1       -0.2911
      6 C         134.8625  140.6733  156.1750 C.3     1  UNL1        0.1336
      7 C         137.0841  140.1490  154.9343 C.ar    1  UNL1        0.2744
      8 O         136.3793  139.1128  154.1101 O.2     1  UNL1       -0.2656
      9 C         139.1986  143.2580  157.4070 C.ar    1  UNL1        0.0041
     10 C         139.4969  144.6063  156.8215 C.ar    1  UNL1        0.0206
     11 C         140.2018  145.6426  157.6458 C.ar    1  UNL1        0.1003
     12 N         140.6083  145.3304  159.0554 N.ar    1  UNL1       -0.2290
     13 C         140.3100  143.9820  159.6409 C.ar    1  UNL1        0.1360
     14 C         139.6051  142.9458  158.8167 C.ar    1  UNL1        0.0390
     15 N         140.7165  143.6698  161.0506 N.am    1  UNL1       -0.2373
     16 C         142.1289  143.2642  161.3516 C.3     1  UNL1        0.1244
     17 C         142.5354  142.9520  162.7613 C.3     1  UNL1        0.1277
     18 N         141.5295  143.0454  163.8701 N.ar    1  UNL1       -0.3256
     19 C         140.1171  143.4510  163.5691 C.ar    1  UNL1        0.1140
     20 C         139.3515  143.4562  164.8591 C.ar    1  UNL1        0.0187
     21 C         140.2908  143.0539  165.9571 C.ar    1  UNL1       -0.0089
     22 C         141.6369  142.7999  165.3459 C.ar    1  UNL1        0.0333
     23 C         142.5762  142.3975  166.4440 C.3     1  UNL1        0.0438
     24 C         141.8105  142.4028  167.7339 C.3     1  UNL1        0.0096
     25 C         143.1201  141.9798  168.3306 C.3     1  UNL1        0.0007
     26 C         141.3188  142.3196  169.1485 C.3     1  UNL1        0.0007
     27 C         140.3981  142.8084  167.4330 C.3     1  UNL1        0.0279
     28 C         139.7106  143.7632  162.1594 C.2     1  UNL1        0.2697
     29 O         138.2982  144.1688  161.8585 O.2     1  UNL1       -0.2679
     30 C         139.3068  141.5973  159.4021 C.3     1  UNL1        0.1664
     31 O         138.1145  141.4139  160.2938 O.3     1  UNL1       -0.3771
     32 H         138.2407  141.9213  161.1108 H       1  UNL1        0.2109
     33 N         139.3058  139.6248  153.6937 N.pl3   1  UNL1       -0.2942
     34 H         139.3714  139.9627  152.7713 H       1  UNL1        0.1537
     35 C         141.2813  135.7395  154.8127 C.ar    1  UNL1        0.0674
     36 C         140.5594  136.5413  155.8549 C.ar    1  UNL1        0.0190
     37 C         139.9009  137.8363  155.4819 C.ar    1  UNL1        0.0357
     38 C         139.9644  138.3297  154.0667 C.ar    1  UNL1        0.1324
     39 N         140.6863  137.5280  153.0246 N.ar    1  UNL1       -0.2278
     40 C         141.3448  136.2328  153.3976 C.ar    1  UNL1        0.1147
     41 C         144.1571  135.7102  155.6666 C.3     1  UNL1        0.0229
     42 C         143.3777  134.4299  155.6127 C.3     1  UNL1        0.0889
     43 C         144.0361  133.1347  155.9857 C.3     1  UNL1        0.0921
     44 N         143.2567  131.8543  155.9318 N.3     1  UNL1       -0.2668
     45 C         141.8189  131.8689  155.5049 C.3     1  UNL1        0.0939
     46 C         141.1604  133.1640  155.1319 C.3     1  UNL1        0.1081
     47 N         141.9398  134.4445  155.1858 N.pl3   1  UNL1       -0.3051
     48 C         143.9152  130.5591  156.3049 C.3     1  UNL1        0.1173
     49 C         144.8366  129.5995  155.6120 C.3     1  UNL1        0.1606
     50 O         144.8463  128.7275  156.8325 O.3     1  UNL1       -0.3507
     51 C         143.9249  129.6871  157.5254 C.3     1  UNL1        0.1606
@<TRIPOS>BOND
     1    42    41    1
     2    42    43    1
     3    43    44    1
     4    44    48    1
     5    48    49    1
     6    49    50    1
     7    50    51    1
     8    44    45    1
     9    45    46    1
    10    46    47    1
    11    47    35    1
    12    35    36   ar
    13    36    37   ar
    14    37    38   ar
    15    38    33    1
    16    33     1    1
    17     1     2   ar
    18     2     3   ar
    19     3     9    1
    20     9    10   ar
    21    10    11   ar
    22    11    12   ar
    23    12    13   ar
    24    13    15    1
    25    15    16    1
    26    16    17    1
    27    17    18    1
    28    18    19   ar
    29    19    20   ar
    30    20    21   ar
    31    21    22   ar
    32    22    23    1
    33    23    24    1
    34    24    25    1
    35    24    26    1
    36    24    27    1
    37    19    28    1
    38    28    29    2
    39    13    14   ar
    40    14    30    1
    41    30    31    1
    42     3     4   ar
    43     4     5   ar
    44     5     6    1
    45     5     7   ar
    46     7     8    2
    47    38    39   ar
    48    39    40   ar
    49    47    42    1
    50    40    35   ar
    51    51    48    1
    52     7     1   ar
    53    14     9   ar
    54    28    15   am
    55    22    18   ar
    56    27    21    1
    57    33    34    1
    58    31    32    1
@<TRIPOS>MOLECULE
*****
 51 58 0 0 0
SMALL
GASTEIGER

@<TRIPOS>ATOM
      1 C         138.8349  140.8493  158.5564 C.ar    1  UNL1        0.1063
      2 C         139.3595  139.8597  157.5587 C.ar    1  UNL1        0.0210
      3 C         140.3392  140.2986  156.5111 C.ar    1  UNL1        0.0186
      4 C         140.7943  141.7269  156.4611 C.ar    1  UNL1        0.0784
      5 N         140.2697  142.7166  157.4589 N.ar    1  UNL1       -0.2911
      6 C         140.7248  144.1449  157.4089 C.3     1  UNL1        0.1336
      7 C         139.2900  142.2777  158.5065 C.ar    1  UNL1        0.2744
      8 O         138.7653  143.2673  159.5043 O.2     1  UNL1       -0.2656
      9 C         140.8638  139.3089  155.5133 C.ar    1  UNL1        0.0041
     10 C         141.0869  139.7255  154.0898 C.ar    1  UNL1        0.0206
     11 C         141.6115  138.7359  153.0920 C.ar    1  UNL1        0.1003
     12 N         141.9130  137.3296  153.5179 N.ar    1  UNL1       -0.2290
     13 C         141.6899  136.9130  154.9416 C.ar    1  UNL1        0.1360
     14 C         141.1653  137.9026  155.9392 C.ar    1  UNL1        0.0390
     15 N         141.9914  135.5067  155.3675 N.am    1  UNL1       -0.2373
     16 C         141.0870  134.3858  154.9485 C.3     1  UNL1        0.1244
     17 C         141.3885  132.9795  155.3745 C.3     1  UNL1        0.1277
     18 N         142.5945  132.6941  156.2195 N.ar    1  UNL1       -0.3256
     19 C         143.4990  133.8150  156.6385 C.ar    1  UNL1        0.1140
     20 C         144.6063  133.2324  157.4659 C.ar    1  UNL1        0.0187
     21 C         144.3862  131.7515  157.5582 C.ar    1  UNL1       -0.0089
     22 C         143.1428  131.4188  156.7879 C.ar    1  UNL1        0.0333
     23 C         142.9227  129.9379  156.8801 C.3     1  UNL1        0.0438
     24 C         144.0300  129.3554  157.7075 C.3     1  UNL1        0.0096
     25 C         143.3262  128.0560  157.4502 C.3     1  UNL1        0.0007
     26 C         144.9901  128.5012  158.4811 C.3     1  UNL1        0.0007
     27 C         144.9345  130.4763  158.1266 C.3     1  UNL1        0.0279
     28 C         143.1975  135.2213  156.2125 C.2     1  UNL1        0.2697
     29 O         144.1019  136.3421  156.6316 O.2     1  UNL1       -0.2679
     30 C         140.9422  137.4860  157.3628 C.3     1  UNL1        0.1664
     31 O         142.0124  137.7167  158.3884 O.3     1  UNL1       -0.3771
     32 H         142.7851  137.1693  158.1782 H       1  UNL1        0.2109
     33 N         137.8552  140.4104  159.6041 N.pl3   1  UNL1       -0.2942
     34 H         136.9799  140.0467  159.3380 H       1  UNL1        0.1537
     35 C         138.9173  140.7561  163.9633 C.ar    1  UNL1        0.0674
     36 C         139.8346  140.0317  163.0230 C.ar    1  UNL1        0.0190
     37 C         139.4805  139.9165  161.5700 C.ar    1  UNL1        0.0357
     38 C         138.2092  140.5256  161.0572 C.ar    1  UNL1        0.1324
     39 N         137.2921  141.2500  161.9974 N.ar    1  UNL1       -0.2278
     40 C         137.6461  141.3652  163.4505 C.ar    1  UNL1        0.1147
     41 C         138.3063  138.4966  165.8399 C.3     1  UNL1        0.0229
     42 C         138.9659  139.7416  166.3546 C.3     1  UNL1        0.0889
     43 C         139.3200  139.8568  167.8077 C.3     1  UNL1        0.0921
     44 N         139.9795  141.1018  168.3224 N.3     1  UNL1       -0.2668
     45 C         140.2850  142.2315  167.3842 C.3     1  UNL1        0.0939
     46 C         139.9309  142.1163  165.9311 C.3     1  UNL1        0.1081
     47 N         139.2714  140.8713  165.4163 N.pl3   1  UNL1       -0.3051
     48 C         140.3336  141.2170  169.7755 C.3     1  UNL1        0.1173
     49 C         140.4856  140.2480  170.9103 C.3     1  UNL1        0.1606
     50 O         140.8344  141.3802  171.8304 O.3     1  UNL1       -0.3507
     51 C         140.6824  142.3493  170.6956 C.3     1  UNL1        0.1606
@<TRIPOS>BOND
     1    42    41    1
     2    42    43    1
     3    43    44    1
     4    44    48    1
     5    48    49    1
     6    49    50    1
     7    50    51    1
     8    44    45    1
     9    45    46    1
    10    46    47    1
    11    47    35    1
    12    35    36   ar
    13    36    37   ar
    14    37    38   ar
    15    38    33    1
    16    33     1    1
    17     1     2   ar
    18     2     3   ar
    19     3     9    1
    20     9    10   ar
    21    10    11   ar
    22    11    12   ar
    23    12    13   ar
    24    13    15    1
    25    15    16    1
    26    16    17    1
    27    17    18    1
    28    18    19   ar
    29    19    20   ar
    30    20    21   ar
    31    21    22   ar
    32    22    23    1
    33    23    24    1
    34    24    25    1
    35    24    26    1
    36    24    27    1
    37    19    28    1
    38    28    29    2
    39    13    14   ar
    40    14    30    1
    41    30    31    1
    42     3     4   ar
    43     4     5   ar
    44     5     6    1
    45     5     7   ar
    46     7     8    2
    47    38    39   ar
    48    39    40   ar
    49    47    42    1
    50    40    35   ar
    51    51    48    1
    52     7     1   ar
    53    14     9   ar
    54    28    15   am
    55    22    18   ar
    56    27    21    1
    57    33    34    1
    58    31    32    1
@<TRIPOS>MOLECULE
*****
 51 58 0 0 0
SMALL
GASTEIGER

@<TRIPOS>ATOM
      1 C         141.9340  140.1761  156.5598 C.ar    1  UNL1        0.1063
      2 C         141.9578  141.2863  157.5682 C.ar    1  UNL1        0.0210
      3 C         140.6867  141.9929  157.9357 C.ar    1  UNL1        0.0186
      4 C         139.3920  141.5893  157.2949 C.ar    1  UNL1        0.0784
      5 N         139.3682  140.4791  156.2865 N.ar    1  UNL1       -0.2911
      6 C         138.0734  140.0756  155.6457 C.3     1  UNL1        0.1336
      7 C         140.6393  139.7725  155.9189 C.ar    1  UNL1        0.2744
      8 O         140.6155  138.6623  154.9105 O.2     1  UNL1       -0.2656
      9 C         140.7105  143.1031  158.9442 C.ar    1  UNL1        0.0041
     10 C         140.7458  144.5312  158.4868 C.ar    1  UNL1        0.0206
     11 C         140.7696  145.6414  159.4952 C.ar    1  UNL1        0.1003
     12 N         140.7581  145.3234  160.9611 N.ar    1  UNL1       -0.2290
     13 C         140.7228  143.8953  161.4185 C.ar    1  UNL1        0.1360
     14 C         140.6990  142.7851  160.4100 C.ar    1  UNL1        0.0390
     15 N         140.7112  143.5773  162.8843 N.am    1  UNL1       -0.2373
     16 C         139.4326  143.6731  163.6626 C.3     1  UNL1        0.1244
     17 C         139.4211  143.3551  165.1285 C.3     1  UNL1        0.1277
     18 N         140.6883  142.9413  165.8161 N.ar    1  UNL1       -0.3256
     19 C         141.9670  142.8455  165.0378 C.ar    1  UNL1        0.1140
     20 C         143.0517  142.4140  165.9798 C.ar    1  UNL1        0.0187
     21 C         142.4433  142.2432  167.3402 C.ar    1  UNL1       -0.0089
     22 C         140.9827  142.5691  167.2390 C.ar    1  UNL1        0.0333
     23 C         140.3743  142.3983  168.5994 C.3     1  UNL1        0.0438
     24 C         141.4589  141.9668  169.5414 C.3     1  UNL1        0.0096
     25 C         140.3589  141.9727  170.5611 C.3     1  UNL1        0.0007
     26 C         142.3136  141.5366  170.6965 C.3     1  UNL1        0.0007
     27 C         142.7377  141.8709  168.7632 C.3     1  UNL1        0.0279
     28 C         141.9786  143.1634  163.5719 C.2     1  UNL1        0.2697
     29 O         143.2572  143.0676  162.7938 O.2     1  UNL1       -0.2679
     30 C         140.6637  141.3570  160.8674 C.3     1  UNL1        0.1664
     31 O         141.9416  140.6414  161.1915 O.3     1  UNL1       -0.3771
     32 H         142.4693  140.5402  160.3840 H       1  UNL1        0.2109
     33 N         143.2051  139.4695  156.1922 N.pl3   1  UNL1       -0.2942
     34 H         143.9641  139.9795  155.8276 H       1  UNL1        0.1537
     35 C         143.5487  135.0181  156.7562 C.ar    1  UNL1        0.0674
     36 C         144.0377  135.6534  155.4884 C.ar    1  UNL1        0.0190
     37 C         143.9232  137.1372  155.3004 C.ar    1  UNL1        0.0357
     38 C         143.3196  137.9856  156.3802 C.ar    1  UNL1        0.1324
     39 N         142.8306  137.3503  157.6479 N.ar    1  UNL1       -0.2278
     40 C         142.9451  135.8665  157.8359 C.ar    1  UNL1        0.1147
     41 C         141.5238  133.1876  155.5113 C.3     1  UNL1        0.0229
     42 C         142.6508  132.6192  156.3217 C.3     1  UNL1        0.0889
     43 C         142.7654  131.1354  156.5097 C.3     1  UNL1        0.0921
     44 N         143.8923  130.5669  157.3200 N.3     1  UNL1       -0.2668
     45 C         144.9047  131.4820  157.9424 C.3     1  UNL1        0.0939
     46 C         144.7902  132.9658  157.7545 C.3     1  UNL1        0.1081
     47 N         143.6632  133.5344  156.9441 N.pl3   1  UNL1       -0.3051
     48 C         144.0069  129.0830  157.5080 C.3     1  UNL1        0.1173
     49 C         143.3437  127.8826  156.9006 C.3     1  UNL1        0.1606
     50 O         144.1690  126.9847  157.7740 O.3     1  UNL1       -0.3507
     51 C         144.8322  128.1852  158.3814 C.3     1  UNL1        0.1606
@<TRIPOS>BOND
     1    42    41    1
     2    42    43    1
     3    43    44    1
     4    44    48    1
     5    48    49    1
     6    49    50    1
     7    50    51    1
     8    44    45    1
     9    45    46    1
    10    46    47    1
    11    47    35    1
    12    35    36   ar
    13    36    37   ar
    14    37    38   ar
    15    38    33    1
    16    33     1    1
    17     1     2   ar
    18     2     3   ar
    19     3     9    1
    20     9    10   ar
    21    10    11   ar
    22    11    12   ar
    23    12    13   ar
    24    13    15    1
    25    15    16    1
    26    16    17    1
    27    17    18    1
    28    18    19   ar
    29    19    20   ar
    30    20    21   ar
    31    21    22   ar
    32    22    23    1
    33    23    24    1
    34    24    25    1
    35    24    26    1
    36    24    27    1
    37    19    28    1
    38    28    29    2
    39    13    14   ar
    40    14    30    1
    41    30    31    1
    42     3     4   ar
    43     4     5   ar
    44     5     6    1
    45     5     7   ar
    46     7     8    2
    47    38    39   ar
    48    39    40   ar
    49    47    42    1
    50    40    35   ar
    51    51    48    1
    52     7     1   ar
    53    14     9   ar
    54    28    15   am
    55    22    18   ar
    56    27    21    1
    57    33    34    1
    58    31    32    1
@<TRIPOS>MOLECULE
*****
 51 58 0 0 0
SMALL
GASTEIGER

@<TRIPOS>ATOM
      1 C         139.2351  143.0987  158.7020 C.ar    1  UNL1        0.1063
      2 C         139.4746  142.1291  157.5828 C.ar    1  UNL1        0.0210
      3 C         140.5606  142.3923  156.5821 C.ar    1  UNL1        0.0186
      4 C         141.4069  143.6250  156.7005 C.ar    1  UNL1        0.0784
      5 N         141.1674  144.5946  157.8197 N.ar    1  UNL1       -0.2911
      6 C         142.0138  145.8272  157.9381 C.3     1  UNL1        0.1336
      7 C         140.0815  144.3314  158.8205 C.ar    1  UNL1        0.2744
      8 O         139.8419  145.3009  159.9396 O.2     1  UNL1       -0.2656
      9 C         140.8001  141.4227  155.4629 C.ar    1  UNL1        0.0041
     10 C         140.5052  141.8230  154.0478 C.ar    1  UNL1        0.0206
     11 C         140.7448  140.8533  152.9285 C.ar    1  UNL1        0.1003
     12 N         141.2791  139.4834  153.2247 N.ar    1  UNL1       -0.2290
     13 C         141.5739  139.0831  154.6399 C.ar    1  UNL1        0.1360
     14 C         141.3344  140.0527  155.7590 C.ar    1  UNL1        0.0390
     15 N         142.1083  137.7131  154.9360 N.am    1  UNL1       -0.2373
     16 C         143.5545  137.5325  155.2903 C.3     1  UNL1        0.1244
     17 C         144.0889  136.1626  155.5864 C.3     1  UNL1        0.1277
     18 N         143.1769  134.9731  155.5282 N.ar    1  UNL1       -0.3256
     19 C         141.7305  135.1537  155.1739 C.ar    1  UNL1        0.1140
     20 C         141.0761  133.8040  155.1950 C.ar    1  UNL1        0.0187
     21 C         142.1181  132.7895  155.5624 C.ar    1  UNL1       -0.0089
     22 C         143.4164  133.5120  155.7683 C.ar    1  UNL1        0.0333
     23 C         144.4583  132.4974  156.1357 C.3     1  UNL1        0.0438
     24 C         143.8040  131.1478  156.1568 C.3     1  UNL1        0.0096
     25 C         145.1733  130.6640  156.5319 C.3     1  UNL1        0.0007
     26 C         143.4359  129.6971  156.2564 C.3     1  UNL1        0.0007
     27 C         142.3576  131.3283  155.8025 C.3     1  UNL1        0.0279
     28 C         141.1962  136.5237  154.8778 C.2     1  UNL1        0.2697
     29 O         139.7499  136.7042  154.5235 O.2     1  UNL1       -0.2679
     30 C         141.6292  139.6524  157.1742 C.3     1  UNL1        0.1664
     31 O         140.6324  138.8405  157.9472 O.3     1  UNL1       -0.3771
     32 H         139.8296  139.3656  158.0909 H       1  UNL1        0.2109
     33 N         138.1492  142.8355  159.7027 N.pl3   1  UNL1       -0.2942
     34 H         137.2079  142.8184  159.4147 H       1  UNL1        0.1537
     35 C         139.1942  142.1236  164.0215 C.ar    1  UNL1        0.0674
     36 C         140.0526  141.5436  162.9367 C.ar    1  UNL1        0.0190
     37 C         139.7043  141.7809  161.4972 C.ar    1  UNL1        0.0357
     38 C         138.4975  142.5982  161.1424 C.ar    1  UNL1        0.1324
     39 N         137.6391  143.1781  162.2271 N.ar    1  UNL1       -0.2278
     40 C         137.9874  142.9408  163.6668 C.ar    1  UNL1        0.1147
     41 C         138.4380  139.5378  165.3413 C.3     1  UNL1        0.0229
     42 C         139.1644  140.5934  166.1209 C.3     1  UNL1        0.0889
     43 C         139.5128  140.3561  167.5605 C.3     1  UNL1        0.0921
     44 N         140.2392  141.4117  168.3402 N.3     1  UNL1       -0.2668
     45 C         140.6173  142.7046  167.6803 C.3     1  UNL1        0.0939
     46 C         140.2689  142.9419  166.2408 C.3     1  UNL1        0.1081
     47 N         139.5425  141.8863  165.4611 N.pl3   1  UNL1       -0.3051
     48 C         140.5876  141.1745  169.7798 C.3     1  UNL1        0.1173
     49 C         140.1983  140.1578  170.8117 C.3     1  UNL1        0.1606
     50 O         141.0803  140.8391  171.8157 O.3     1  UNL1       -0.3507
     51 C         141.4696  141.8557  170.7838 C.3     1  UNL1        0.1606
@<TRIPOS>BOND
     1    42    41    1
     2    42    43    1
     3    43    44    1
     4    44    48    1
     5    48    49    1
     6    49    50    1
     7    50    51    1
     8    44    45    1
     9    45    46    1
    10    46    47    1
    11    47    35    1
    12    35    36   ar
    13    36    37   ar
    14    37    38   ar
    15    38    33    1
    16    33     1    1
    17     1     2   ar
    18     2     3   ar
    19     3     9    1
    20     9    10   ar
    21    10    11   ar
    22    11    12   ar
    23    12    13   ar
    24    13    15    1
    25    15    16    1
    26    16    17    1
    27    17    18    1
    28    18    19   ar
    29    19    20   ar
    30    20    21   ar
    31    21    22   ar
    32    22    23    1
    33    23    24    1
    34    24    25    1
    35    24    26    1
    36    24    27    1
    37    19    28    1
    38    28    29    2
    39    13    14   ar
    40    14    30    1
    41    30    31    1
    42     3     4   ar
    43     4     5   ar
    44     5     6    1
    45     5     7   ar
    46     7     8    2
    47    38    39   ar
    48    39    40   ar
    49    47    42    1
    50    40    35   ar
    51    51    48    1
    52     7     1   ar
    53    14     9   ar
    54    28    15   am
    55    22    18   ar
    56    27    21    1
    57    33    34    1
    58    31    32    1
@<TRIPOS>MOLECULE
*****
 51 58 0 0 0
SMALL
GASTEIGER

@<TRIPOS>ATOM
      1 C         139.5572  142.0298  157.6153 C.ar    1  UNL1        0.1063
      2 C         140.7895  141.2125  157.3629 C.ar    1  UNL1        0.0210
      3 C         140.7829  140.1545  156.2996 C.ar    1  UNL1        0.0186
      4 C         139.5442  139.9137  155.4889 C.ar    1  UNL1        0.0784
      5 N         138.3118  140.7309  155.7413 N.ar    1  UNL1       -0.2911
      6 C         137.0731  140.4900  154.9305 C.3     1  UNL1        0.1336
      7 C         138.3184  141.7890  156.8045 C.ar    1  UNL1        0.2744
      8 O         137.0862  142.6062  157.0569 O.2     1  UNL1       -0.2656
      9 C         142.0152  139.3372  156.0472 C.ar    1  UNL1        0.0041
     10 C         143.2710  140.0024  155.5676 C.ar    1  UNL1        0.0206
     11 C         144.5034  139.1852  155.3152 C.ar    1  UNL1        0.1003
     12 N         144.4796  137.7027  155.5425 N.ar    1  UNL1       -0.2290
     13 C         143.2237  137.0375  156.0222 C.ar    1  UNL1        0.1360
     14 C         141.9915  137.8548  156.2746 C.ar    1  UNL1        0.0390
     15 N         143.2000  135.5550  156.2496 N.am    1  UNL1       -0.2373
     16 C         143.6495  134.9906  157.5645 C.3     1  UNL1        0.1244
     17 C         143.6258  133.5081  157.7918 C.3     1  UNL1        0.1277
     18 N         143.1525  132.5900  156.7042 N.ar    1  UNL1       -0.3256
     19 C         142.7029  133.1545  155.3891 C.ar    1  UNL1        0.1140
     20 C         142.2910  132.0107  154.5103 C.ar    1  UNL1        0.0187
     21 C         142.4860  130.7395  155.2822 C.ar    1  UNL1       -0.0089
     22 C         143.0185  131.0975  156.6381 C.ar    1  UNL1        0.0333
     23 C         143.2135  129.8262  157.4100 C.3     1  UNL1        0.0438
     24 C         142.8016  128.6825  156.5312 C.3     1  UNL1        0.0096
     25 C         143.1818  127.8423  157.7142 C.3     1  UNL1        0.0007
     26 C         142.4692  127.3632  155.8997 C.3     1  UNL1        0.0007
     27 C         142.3520  129.2469  155.2162 C.3     1  UNL1        0.0279
     28 C         142.7266  134.6370  155.1618 C.2     1  UNL1        0.2697
     29 O         142.2770  135.2014  153.8468 O.2     1  UNL1       -0.2679
     30 C         140.7355  137.1896  156.7543 C.3     1  UNL1        0.1664
     31 O         139.9279  136.3449  155.8138 O.3     1  UNL1       -0.3771
     32 H         139.5578  136.9045  155.1133 H       1  UNL1        0.2109
     33 N         139.5638  143.0878  158.6785 N.pl3   1  UNL1       -0.2942
     34 H         139.5532  144.0394  158.4262 H       1  UNL1        0.1537
     35 C         139.6323  141.9123  163.0218 C.ar    1  UNL1        0.0674
     36 C         140.7802  141.5474  162.1279 C.ar    1  UNL1        0.0190
     37 C         140.7574  141.9392  160.6801 C.ar    1  UNL1        0.0357
     38 C         139.5866  142.6960  160.1263 C.ar    1  UNL1        0.1324
     39 N         138.4387  143.0609  161.0202 N.ar    1  UNL1       -0.2278
     40 C         138.4615  142.6691  162.4680 C.ar    1  UNL1        0.1147
     41 C         138.4827  139.2779  163.8811 C.3     1  UNL1        0.0229
     42 C         139.0803  140.2033  164.8991 C.3     1  UNL1        0.0889
     43 C         139.1032  139.8115  166.3469 C.3     1  UNL1        0.0921
     44 N         139.7008  140.7368  167.3650 N.3     1  UNL1       -0.2668
     45 C         140.2755  142.0540  166.9354 C.3     1  UNL1        0.0939
     46 C         140.2527  142.4459  165.4876 C.3     1  UNL1        0.1081
     47 N         139.6551  141.5205  164.4695 N.pl3   1  UNL1       -0.3051
     48 C         139.7236  140.3450  168.8128 C.3     1  UNL1        0.1173
     49 C         140.7807  139.8765  169.7682 C.3     1  UNL1        0.1606
     50 O         139.7558  139.7910  170.8602 O.3     1  UNL1       -0.3507
     51 C         138.6987  140.2596  169.9048 C.3     1  UNL1        0.1606
@<TRIPOS>BOND
     1    42    41    1
     2    42    43    1
     3    43    44    1
     4    44    48    1
     5    48    49    1
     6    49    50    1
     7    50    51    1
     8    44    45    1
     9    45    46    1
    10    46    47    1
    11    47    35    1
    12    35    36   ar
    13    36    37   ar
    14    37    38   ar
    15    38    33    1
    16    33     1    1
    17     1     2   ar
    18     2     3   ar
    19     3     9    1
    20     9    10   ar
    21    10    11   ar
    22    11    12   ar
    23    12    13   ar
    24    13    15    1
    25    15    16    1
    26    16    17    1
    27    17    18    1
    28    18    19   ar
    29    19    20   ar
    30    20    21   ar
    31    21    22   ar
    32    22    23    1
    33    23    24    1
    34    24    25    1
    35    24    26    1
    36    24    27    1
    37    19    28    1
    38    28    29    2
    39    13    14   ar
    40    14    30    1
    41    30    31    1
    42     3     4   ar
    43     4     5   ar
    44     5     6    1
    45     5     7   ar
    46     7     8    2
    47    38    39   ar
    48    39    40   ar
    49    47    42    1
    50    40    35   ar
    51    51    48    1
    52     7     1   ar
    53    14     9   ar
    54    28    15   am
    55    22    18   ar
    56    27    21    1
    57    33    34    1
    58    31    32    1
@<TRIPOS>MOLECULE
*****
 51 58 0 0 0
SMALL
GASTEIGER

@<TRIPOS>ATOM
      1 C         139.7319  140.9166  155.7296 C.ar    1  UNL1        0.1063
      2 C         140.2195  141.7474  156.8794 C.ar    1  UNL1        0.0210
      3 C         139.2349  142.4113  157.7957 C.ar    1  UNL1        0.0186
      4 C         137.7627  142.2445  157.5622 C.ar    1  UNL1        0.0784
      5 N         137.2749  141.4138  156.4124 N.ar    1  UNL1       -0.2911
      6 C         135.8027  141.2470  156.1790 C.3     1  UNL1        0.1336
      7 C         138.2596  140.7498  155.4961 C.ar    1  UNL1        0.2744
      8 O         137.7720  139.9191  154.3463 O.2     1  UNL1       -0.2656
      9 C         139.7226  143.2421  158.9456 C.ar    1  UNL1        0.0041
     10 C         140.1348  144.6665  158.7200 C.ar    1  UNL1        0.0206
     11 C         140.6225  145.4973  159.8699 C.ar    1  UNL1        0.1003
     12 N         140.6980  144.9034  161.2452 N.ar    1  UNL1       -0.2290
     13 C         140.2858  143.4789  161.4708 C.ar    1  UNL1        0.1360
     14 C         139.7981  142.6482  160.3209 C.ar    1  UNL1        0.0390
     15 N         140.3613  142.8851  162.8461 N.am    1  UNL1       -0.2373
     16 C         139.1976  143.0140  163.7837 C.3     1  UNL1        0.1244
     17 C         139.2731  142.4202  165.1591 C.3     1  UNL1        0.1277
     18 N         140.5123  141.6973  165.5969 N.ar    1  UNL1       -0.3256
     19 C         141.6761  141.5683  164.6592 C.ar    1  UNL1        0.1140
     20 C         142.7577  140.8054  165.3652 C.ar    1  UNL1        0.0187
     21 C         142.2624  140.4630  166.7390 C.ar    1  UNL1       -0.0089
     22 C         140.8747  141.0142  166.8822 C.ar    1  UNL1        0.0333
     23 C         140.3793  140.6717  168.2560 C.3     1  UNL1        0.0438
     24 C         141.4609  139.9089  168.9618 C.3     1  UNL1        0.0096
     25 C         140.4805  139.8770  170.0966 C.3     1  UNL1        0.0007
     26 C         142.3375  139.1393  169.9049 C.3     1  UNL1        0.0007
     27 C         142.6247  139.7798  168.0243 C.3     1  UNL1        0.0279
     28 C         141.6006  142.1622  163.2839 C.2     1  UNL1        0.2697
     29 O         142.7643  142.0332  162.3464 O.2     1  UNL1       -0.2679
     30 C         139.3859  141.2237  160.5465 C.3     1  UNL1        0.1664
     31 O         137.9720  140.9042  160.9327 O.3     1  UNL1       -0.3771
     32 H         137.7872  141.2679  161.8127 H       1  UNL1        0.2109
     33 N         140.7166  140.2527  154.8133 N.pl3   1  UNL1       -0.2942
     34 H         141.0329  140.7217  154.0076 H       1  UNL1        0.1537
     35 C         142.2246  136.1171  155.7477 C.ar    1  UNL1        0.0674
     36 C         140.8262  136.5083  156.1240 C.ar    1  UNL1        0.0190
     37 C         140.3236  137.8868  155.8126 C.ar    1  UNL1        0.0357
     38 C         141.2193  138.8741  155.1248 C.ar    1  UNL1        0.1324
     39 N         142.6176  138.4830  154.7486 N.ar    1  UNL1       -0.2278
     40 C         143.1203  137.1044  155.0600 C.ar    1  UNL1        0.1147
     41 C         141.6950  133.8612  153.8423 C.3     1  UNL1        0.0229
     42 C         142.4624  133.6107  155.1064 C.3     1  UNL1        0.0889
     43 C         142.9651  132.2322  155.4180 C.3     1  UNL1        0.0921
     44 N         143.7325  131.9816  156.6821 N.3     1  UNL1       -0.2668
     45 C         143.9974  133.1094  157.6348 C.3     1  UNL1        0.0939
     46 C         143.4947  134.4880  157.3234 C.3     1  UNL1        0.1081
     47 N         142.7273  134.7386  156.0592 N.pl3   1  UNL1       -0.3051
     48 C         144.2352  130.6030  156.9936 C.3     1  UNL1        0.1173
     49 C         144.5579  129.8505  158.2504 C.3     1  UNL1        0.1606
     50 O         144.9461  128.6535  157.4340 O.3     1  UNL1       -0.3507
     51 C         144.6235  129.4059  156.1773 C.3     1  UNL1        0.1606
@<TRIPOS>BOND
     1    42    41    1
     2    42    43    1
     3    43    44    1
     4    44    48    1
     5    48    49    1
     6    49    50    1
     7    50    51    1
     8    44    45    1
     9    45    46    1
    10    46    47    1
    11    47    35    1
    12    35    36   ar
    13    36    37   ar
    14    37    38   ar
    15    38    33    1
    16    33     1    1
    17     1     2   ar
    18     2     3   ar
    19     3     9    1
    20     9    10   ar
    21    10    11   ar
    22    11    12   ar
    23    12    13   ar
    24    13    15    1
    25    15    16    1
    26    16    17    1
    27    17    18    1
    28    18    19   ar
    29    19    20   ar
    30    20    21   ar
    31    21    22   ar
    32    22    23    1
    33    23    24    1
    34    24    25    1
    35    24    26    1
    36    24    27    1
    37    19    28    1
    38    28    29    2
    39    13    14   ar
    40    14    30    1
    41    30    31    1
    42     3     4   ar
    43     4     5   ar
    44     5     6    1
    45     5     7   ar
    46     7     8    2
    47    38    39   ar
    48    39    40   ar
    49    47    42    1
    50    40    35   ar
    51    51    48    1
    52     7     1   ar
    53    14     9   ar
    54    28    15   am
    55    22    18   ar
    56    27    21    1
    57    33    34    1
    58    31    32    1
@<TRIPOS>MOLECULE
*****
 51 58 0 0 0
SMALL
GASTEIGER

@<TRIPOS>ATOM
      1 C         142.3622  139.4780  165.8116 C.ar    1  UNL1        0.1063
      2 C         141.6037  140.5545  165.0934 C.ar    1  UNL1        0.0210
      3 C         141.1616  141.7819  165.8337 C.ar    1  UNL1        0.0186
      4 C         141.4779  141.9328  167.2921 C.ar    1  UNL1        0.0784
      5 N         142.2364  140.8563  168.0104 N.ar    1  UNL1       -0.2911
      6 C         142.5526  141.0072  169.4688 C.3     1  UNL1        0.1336
      7 C         142.6785  139.6289  167.2701 C.ar    1  UNL1        0.2744
      8 O         143.4370  138.5524  167.9883 O.2     1  UNL1       -0.2656
      9 C         140.4031  142.8584  165.1154 C.ar    1  UNL1        0.0041
     10 C         139.5137  143.7899  165.8842 C.ar    1  UNL1        0.0206
     11 C         138.7552  144.8664  165.1659 C.ar    1  UNL1        0.1003
     12 N         138.8862  145.0113  163.6787 N.ar    1  UNL1       -0.2290
     13 C         139.7757  144.0798  162.9098 C.ar    1  UNL1        0.1360
     14 C         140.5341  143.0034  163.6281 C.ar    1  UNL1        0.0390
     15 N         139.9067  144.2247  161.4226 N.am    1  UNL1       -0.2373
     16 C         140.7711  145.3074  160.8477 C.3     1  UNL1        0.1244
     17 C         140.9021  145.4523  159.3605 C.3     1  UNL1        0.1277
     18 N         140.1686  144.5145  158.4481 N.ar    1  UNL1       -0.3256
     19 C         139.3041  143.4318  159.0230 C.ar    1  UNL1        0.1140
     20 C         138.7062  142.6618  157.8829 C.ar    1  UNL1        0.0187
     21 C         139.2011  143.2687  156.6036 C.ar    1  UNL1       -0.0089
     22 C         140.1049  144.4137  156.9528 C.ar    1  UNL1        0.0333
     23 C         140.5999  145.0206  155.6735 C.3     1  UNL1        0.0438
     24 C         140.0019  144.2506  154.5335 C.3     1  UNL1        0.0096
     25 C         140.7751  145.2145  153.6832 C.3     1  UNL1        0.0007
     26 C         139.5656  143.6822  153.2158 C.3     1  UNL1        0.0007
     27 C         139.1374  143.1679  155.1083 C.3     1  UNL1        0.0279
     28 C         139.1731  143.2869  160.5102 C.2     1  UNL1        0.2697
     29 O         138.3087  142.2042  161.0850 O.2     1  UNL1       -0.2679
     30 C         141.4235  142.0718  162.8593 C.3     1  UNL1        0.1664
     31 O         142.7467  142.5540  162.3426 O.3     1  UNL1       -0.3771
     32 H         142.6015  143.2345  161.6668 H       1  UNL1        0.2109
     33 N         142.8043  138.2506  165.0713 N.pl3   1  UNL1       -0.2942
     34 H         143.1234  137.4636  165.5693 H       1  UNL1        0.1537
     35 C         142.6721  138.1660  160.5740 C.ar    1  UNL1        0.0674
     36 C         141.4608  137.7743  161.3674 C.ar    1  UNL1        0.0190
     37 C         141.5049  137.8025  162.8665 C.ar    1  UNL1        0.0357
     38 C         142.7603  138.2224  163.5722 C.ar    1  UNL1        0.1324
     39 N         143.9714  138.6141  162.7788 N.ar    1  UNL1       -0.2278
     40 C         143.9274  138.5859  161.2796 C.ar    1  UNL1        0.1147
     41 C         142.0627  140.6734  159.0437 C.3     1  UNL1        0.0229
     42 C         142.3233  139.3915  158.3099 C.3     1  UNL1        0.0889
     43 C         142.2792  139.3632  156.8107 C.3     1  UNL1        0.0921
     44 N         142.5398  138.0813  156.0768 N.3     1  UNL1       -0.2668
     45 C         142.8445  136.8276  156.8419 C.3     1  UNL1        0.0939
     46 C         142.8886  136.8558  158.3409 C.3     1  UNL1        0.1081
     47 N         142.6280  138.1378  159.0749 N.pl3   1  UNL1       -0.3051
     48 C         142.4957  138.0531  154.5776 C.3     1  UNL1        0.1173
     49 C         142.0389  137.0621  153.5485 C.3     1  UNL1        0.1606
     50 O         142.4335  138.0132  152.4576 O.3     1  UNL1       -0.3507
     51 C         142.8903  139.0041  153.4868 C.3     1  UNL1        0.1606
@<TRIPOS>BOND
     1    42    41    1
     2    42    43    1
     3    43    44    1
     4    44    48    1
     5    48    49    1
     6    49    50    1
     7    50    51    1
     8    44    45    1
     9    45    46    1
    10    46    47    1
    11    47    35    1
    12    35    36   ar
    13    36    37   ar
    14    37    38   ar
    15    38    33    1
    16    33     1    1
    17     1     2   ar
    18     2     3   ar
    19     3     9    1
    20     9    10   ar
    21    10    11   ar
    22    11    12   ar
    23    12    13   ar
    24    13    15    1
    25    15    16    1
    26    16    17    1
    27    17    18    1
    28    18    19   ar
    29    19    20   ar
    30    20    21   ar
    31    21    22   ar
    32    22    23    1
    33    23    24    1
    34    24    25    1
    35    24    26    1
    36    24    27    1
    37    19    28    1
    38    28    29    2
    39    13    14   ar
    40    14    30    1
    41    30    31    1
    42     3     4   ar
    43     4     5   ar
    44     5     6    1
    45     5     7   ar
    46     7     8    2
    47    38    39   ar
    48    39    40   ar
    49    47    42    1
    50    40    35   ar
    51    51    48    1
    52     7     1   ar
    53    14     9   ar
    54    28    15   am
    55    22    18   ar
    56    27    21    1
    57    33    34    1
    58    31    32    1
