@<TRIPOS>MOLECULE
*****
 28 31 0 0 0
SMALL
GASTEIGER

@<TRIPOS>ATOM
      1 N         144.0598  139.9929  164.0979 N.3     1  UNL1       -0.2700
      2 C         143.4641  139.7322  165.4496 C.3     1  UNL1        0.0897
      3 C         142.3259  138.7661  165.5940 C.3     1  UNL1        0.0897
      4 N         141.7833  138.0605  164.3866 N.3     1  UNL1       -0.2700
      5 C         142.3789  138.3212  163.0348 C.3     1  UNL1        0.0897
      6 C         143.5172  139.2874  162.8905 C.3     1  UNL1        0.0897
      7 C         145.1980  140.9591  163.9535 C.3     1  UNL1        0.0769
      8 C         145.0092  142.4009  164.3216 C.3     1  UNL1        0.0437
      9 C         141.5936  144.7435  162.5622 C.ar    1  UNL1        0.0684
     10 C         142.7621  144.3612  161.7029 C.ar    1  UNL1        0.0100
     11 C         143.9007  143.5803  162.2893 C.ar    1  UNL1       -0.0035
     12 C         143.8707  143.1818  163.7352 C.ar    1  UNL1       -0.0207
     13 C         142.7022  143.5641  164.5945 C.ar    1  UNL1       -0.0035
     14 C         141.5636  144.3450  164.0079 C.ar    1  UNL1        0.0100
     15 N         139.3166  146.3053  161.3892 N.1     1  UNL1       -0.1908
     16 C         140.4550  145.5244  161.9756 C.1     1  UNL1        0.1004
     17 C         140.6450  137.0943  164.5310 C.3     1  UNL1        0.0769
     18 C         139.2556  137.6035  164.7761 C.3     1  UNL1        0.0437
     19 C         138.8878  139.0019  164.3768 C.ar    1  UNL1       -0.0210
     20 C         138.7606  140.0711  165.4211 C.ar    1  UNL1       -0.0040
     21 C         138.3929  141.4694  165.0217 C.ar    1  UNL1        0.0059
     22 C         138.1525  141.7985  163.5782 C.ar    1  UNL1        0.0751
     23 C         138.2797  140.7292  162.5339 C.ar    1  UNL1        0.0272
     24 C         138.6474  139.3309  162.9332 C.ar    1  UNL1       -0.0047
     25 C         137.9851  141.3473  161.1993 C.3     1  UNL1        0.2356
     26 O         137.6758  142.7986  161.4188 O.3     1  UNL1       -0.4404
     27 C         137.7792  143.0775  162.8890 C.2     1  UNL1        0.3413
     28 O         137.5497  144.4026  163.5533 O.2     1  UNL1       -0.2449
@<TRIPOS>BOND
     1    15    16    3
     2    16     9    1
     3     9    10   ar
     4    10    11   ar
     5    11    12   ar
     6    12     8    1
     7     8     7    1
     8     7     1    1
     9     1     2    1
    10     2     3    1
    11     3     4    1
    12     4    17    1
    13    17    18    1
    14    18    19    1
    15    19    20   ar
    16    20    21   ar
    17    21    22   ar
    18    22    23   ar
    19    23    24   ar
    20    23    25    1
    21    25    26    1
    22    26    27    1
    23    27    28    2
    24     4     5    1
    25     5     6    1
    26    12    13   ar
    27    13    14   ar
    28    14     9   ar
    29     6     1    1
    30    24    19   ar
    31    27    22    1
@<TRIPOS>MOLECULE
*****
 28 31 0 0 0
SMALL
GASTEIGER

@<TRIPOS>ATOM
      1 N         142.3929  138.4766  164.2919 N.3     1  UNL1       -0.2700
      2 C         141.1736  137.7193  164.7273 C.3     1  UNL1        0.0897
      3 C         140.0337  137.5205  163.7728 C.3     1  UNL1        0.0897
      4 N         140.1131  138.0791  162.3829 N.3     1  UNL1       -0.2700
      5 C         141.3324  138.8364  161.9476 C.3     1  UNL1        0.0897
      6 C         142.4723  139.0352  162.9020 C.3     1  UNL1        0.0897
      7 C         143.5329  138.6755  165.2463 C.3     1  UNL1        0.0769
      8 C         143.2905  138.6221  166.7256 C.3     1  UNL1        0.0437
      9 C         141.4297  142.1382  168.8290 C.ar    1  UNL1        0.0684
     10 C         141.6632  140.8568  169.5730 C.ar    1  UNL1        0.0100
     11 C         142.2835  139.6848  168.8719 C.ar    1  UNL1       -0.0035
     12 C         142.6703  139.7941  167.4267 C.ar    1  UNL1       -0.0207
     13 C         142.4368  141.0755  166.6827 C.ar    1  UNL1       -0.0035
     14 C         141.8165  142.2476  167.3839 C.ar    1  UNL1        0.0100
     15 N         140.1892  144.4823  170.2314 N.1     1  UNL1       -0.1908
     16 C         140.8094  143.3103  169.5302 C.1     1  UNL1        0.1004
     17 C         138.9731  137.8802  161.4285 C.3     1  UNL1        0.0769
     18 C         137.7625  138.7619  161.5120 C.3     1  UNL1        0.0437
     19 C         137.9216  140.2331  161.7576 C.ar    1  UNL1       -0.0210
     20 C         138.2696  141.1496  160.6224 C.ar    1  UNL1       -0.0040
     21 C         138.4287  142.6208  160.8680 C.ar    1  UNL1        0.0059
     22 C         138.2398  143.1754  162.2488 C.ar    1  UNL1        0.0751
     23 C         137.8917  142.2589  163.3840 C.ar    1  UNL1        0.0272
     24 C         137.7326  140.7877  163.1384 C.ar    1  UNL1       -0.0047
     25 C         137.7678  143.0880  164.6278 C.3     1  UNL1        0.2356
     26 O         138.0392  144.5170  164.2614 O.3     1  UNL1       -0.4404
     27 C         138.3309  144.5711  162.7910 C.2     1  UNL1        0.3413
     28 O         138.6566  145.8042  162.0015 O.2     1  UNL1       -0.2449
@<TRIPOS>BOND
     1    15    16    3
     2    16     9    1
     3     9    10   ar
     4    10    11   ar
     5    11    12   ar
     6    12     8    1
     7     8     7    1
     8     7     1    1
     9     1     2    1
    10     2     3    1
    11     3     4    1
    12     4    17    1
    13    17    18    1
    14    18    19    1
    15    19    20   ar
    16    20    21   ar
    17    21    22   ar
    18    22    23   ar
    19    23    24   ar
    20    23    25    1
    21    25    26    1
    22    26    27    1
    23    27    28    2
    24     4     5    1
    25     5     6    1
    26    12    13   ar
    27    13    14   ar
    28    14     9   ar
    29     6     1    1
    30    24    19   ar
    31    27    22    1
@<TRIPOS>MOLECULE
*****
 28 31 0 0 0
SMALL
GASTEIGER

@<TRIPOS>ATOM
      1 N         139.8558  138.1061  164.3286 N.3     1  UNL1       -0.2700
      2 C         139.6775  138.0163  162.8420 C.3     1  UNL1        0.0897
      3 C         140.8776  138.0031  161.9422 C.3     1  UNL1        0.0897
      4 N         142.2559  138.0797  162.5290 N.3     1  UNL1       -0.2700
      5 C         142.4342  138.1696  164.0157 C.3     1  UNL1        0.0897
      6 C         141.2341  138.1828  164.9154 C.3     1  UNL1        0.0897
      7 C         138.6557  138.1194  165.2285 C.3     1  UNL1        0.0769
      8 C         138.1453  139.4180  165.7789 C.3     1  UNL1        0.0437
      9 C         138.7625  143.2350  163.4769 C.ar    1  UNL1        0.0684
     10 C         137.7701  142.2196  162.9932 C.ar    1  UNL1        0.0100
     11 C         137.5643  140.9472  163.7605 C.ar    1  UNL1       -0.0035
     12 C         138.3510  140.6903  165.0116 C.ar    1  UNL1       -0.0207
     13 C         139.3435  141.7057  165.4953 C.ar    1  UNL1       -0.0035
     14 C         139.5492  142.9781  164.7279 C.ar    1  UNL1        0.0100
     15 N         139.1739  145.7796  161.9421 N.1     1  UNL1       -0.1908
     16 C         138.9682  144.5074  162.7095 C.1     1  UNL1        0.1004
     17 C         143.4560  138.0665  161.6292 C.3     1  UNL1        0.0769
     18 C         144.0683  139.3589  161.1766 C.3     1  UNL1        0.0437
     19 C         144.2016  140.5028  162.1377 C.ar    1  UNL1       -0.0210
     20 C         145.2140  140.4400  163.2427 C.ar    1  UNL1       -0.0040
     21 C         145.3472  141.5840  164.2037 C.ar    1  UNL1        0.0059
     22 C         144.4679  142.7907  164.0598 C.ar    1  UNL1        0.0751
     23 C         143.4555  142.8535  162.9549 C.ar    1  UNL1        0.0272
     24 C         143.3223  141.7095  161.9938 C.ar    1  UNL1       -0.0047
     25 C         142.7330  144.1636  163.0622 C.3     1  UNL1        0.2356
     26 O         143.2989  144.9105  164.2334 O.3     1  UNL1       -0.4404
     27 C         144.3712  144.0621  164.8500 C.2     1  UNL1        0.3413
     28 O         145.2010  144.4217  166.0467 O.2     1  UNL1       -0.2449
@<TRIPOS>BOND
     1    15    16    3
     2    16     9    1
     3     9    10   ar
     4    10    11   ar
     5    11    12   ar
     6    12     8    1
     7     8     7    1
     8     7     1    1
     9     1     2    1
    10     2     3    1
    11     3     4    1
    12     4    17    1
    13    17    18    1
    14    18    19    1
    15    19    20   ar
    16    20    21   ar
    17    21    22   ar
    18    22    23   ar
    19    23    24   ar
    20    23    25    1
    21    25    26    1
    22    26    27    1
    23    27    28    2
    24     4     5    1
    25     5     6    1
    26    12    13   ar
    27    13    14   ar
    28    14     9   ar
    29     6     1    1
    30    24    19   ar
    31    27    22    1
@<TRIPOS>MOLECULE
*****
 28 31 0 0 0
SMALL
GASTEIGER

@<TRIPOS>ATOM
      1 N         137.9852  140.4564  161.8183 N.3     1  UNL1       -0.2700
      2 C         137.7090  140.4384  163.2925 C.3     1  UNL1        0.0897
      3 C         137.6906  141.7224  164.0677 C.3     1  UNL1        0.0897
      4 N         137.9486  143.0243  163.3687 N.3     1  UNL1       -0.2700
      5 C         138.2248  143.0422  161.8945 C.3     1  UNL1        0.0897
      6 C         138.2431  141.7582  161.1193 C.3     1  UNL1        0.0897
      7 C         138.0036  139.1723  161.0430 C.3     1  UNL1        0.0769
      8 C         139.2607  138.3573  160.9714 C.3     1  UNL1        0.0437
      9 C         142.0659  138.2350  164.4879 C.ar    1  UNL1        0.0684
     10 C         142.3778  139.1094  163.3098 C.ar    1  UNL1        0.0100
     11 C         141.4428  139.1502  162.1376 C.ar    1  UNL1       -0.0035
     12 C         140.1958  138.3165  162.1436 C.ar    1  UNL1       -0.0207
     13 C         139.8839  137.4420  163.3217 C.ar    1  UNL1       -0.0035
     14 C         140.8190  137.4013  164.4939 C.ar    1  UNL1        0.0100
     15 N         143.9361  138.1534  166.8323 N.1     1  UNL1       -0.1908
     16 C         143.0011  138.1942  165.6601 C.1     1  UNL1        0.1004
     17 C         137.9302  144.3083  164.1441 C.3     1  UNL1        0.0769
     18 C         139.1119  144.6946  164.9833 C.3     1  UNL1        0.0437
     19 C         140.4378  144.0284  164.7636 C.ar    1  UNL1       -0.0210
     20 C         140.8244  142.8370  165.5888 C.ar    1  UNL1       -0.0040
     21 C         142.1503  142.1709  165.3690 C.ar    1  UNL1        0.0059
     22 C         143.0895  142.6961  164.3241 C.ar    1  UNL1        0.0751
     23 C         142.7029  143.8875  163.4988 C.ar    1  UNL1        0.0272
     24 C         141.3770  144.5537  163.7186 C.ar    1  UNL1       -0.0047
     25 C         143.8272  144.1783  162.5494 C.3     1  UNL1        0.2356
     26 O         144.9087  143.1666  162.7879 O.3     1  UNL1       -0.4404
     27 C         144.4528  142.2505  163.8846 C.2     1  UNL1        0.3413
     28 O         145.2246  141.0923  164.4438 O.2     1  UNL1       -0.2449
@<TRIPOS>BOND
     1    15    16    3
     2    16     9    1
     3     9    10   ar
     4    10    11   ar
     5    11    12   ar
     6    12     8    1
     7     8     7    1
     8     7     1    1
     9     1     2    1
    10     2     3    1
    11     3     4    1
    12     4    17    1
    13    17    18    1
    14    18    19    1
    15    19    20   ar
    16    20    21   ar
    17    21    22   ar
    18    22    23   ar
    19    23    24   ar
    20    23    25    1
    21    25    26    1
    22    26    27    1
    23    27    28    2
    24     4     5    1
    25     5     6    1
    26    12    13   ar
    27    13    14   ar
    28    14     9   ar
    29     6     1    1
    30    24    19   ar
    31    27    22    1
@<TRIPOS>MOLECULE
*****
 28 31 0 0 0
SMALL
GASTEIGER

@<TRIPOS>ATOM
      1 N         137.9432  142.9831  163.3064 N.3     1  UNL1       -0.2700
      2 C         137.7147  141.8158  164.2202 C.3     1  UNL1        0.0897
      3 C         137.6942  140.4222  163.6659 C.3     1  UNL1        0.0897
      4 N         137.9021  140.1959  162.1977 N.3     1  UNL1       -0.2700
      5 C         138.1306  141.3632  161.2839 C.3     1  UNL1        0.0897
      6 C         138.1512  142.7568  161.8382 C.3     1  UNL1        0.0897
      7 C         137.9638  144.3769  163.8607 C.3     1  UNL1        0.0769
      8 C         139.0766  144.8059  164.7703 C.3     1  UNL1        0.0437
      9 C         143.2170  143.1374  164.2019 C.ar    1  UNL1        0.0684
     10 C         142.2877  142.5138  165.2006 C.ar    1  UNL1        0.0100
     11 C         140.9076  143.0699  165.3901 C.ar    1  UNL1       -0.0035
     12 C         140.4567  144.2497  164.5808 C.ar    1  UNL1       -0.0207
     13 C         141.3861  144.8733  163.5821 C.ar    1  UNL1       -0.0035
     14 C         142.7662  144.3171  163.3926 C.ar    1  UNL1        0.0100
     15 N         145.9773  142.0250  163.8229 N.1     1  UNL1       -0.1908
     16 C         144.5972  142.5812  164.0124 C.1     1  UNL1        0.1004
     17 C         137.8816  138.8021  161.6434 C.3     1  UNL1        0.0769
     18 C         139.1608  138.0313  161.5045 C.3     1  UNL1        0.0437
     19 C         140.2134  138.1268  162.5690 C.ar    1  UNL1       -0.0210
     20 C         139.8882  137.7420  163.9819 C.ar    1  UNL1       -0.0040
     21 C         140.9408  137.8375  165.0463 C.ar    1  UNL1        0.0059
     22 C         142.3185  138.3177  164.6978 C.ar    1  UNL1        0.0751
     23 C         142.6436  138.7025  163.2849 C.ar    1  UNL1        0.0272
     24 C         141.5910  138.6070  162.2205 C.ar    1  UNL1       -0.0047
     25 C         144.0784  139.1375  163.2415 C.3     1  UNL1        0.2356
     26 O         144.6401  139.0216  164.6275 O.3     1  UNL1       -0.4404
     27 C         143.5524  138.5149  165.5276 C.2     1  UNL1        0.3413
     28 O         143.6768  138.2517  166.9991 O.2     1  UNL1       -0.2449
@<TRIPOS>BOND
     1    15    16    3
     2    16     9    1
     3     9    10   ar
     4    10    11   ar
     5    11    12   ar
     6    12     8    1
     7     8     7    1
     8     7     1    1
     9     1     2    1
    10     2     3    1
    11     3     4    1
    12     4    17    1
    13    17    18    1
    14    18    19    1
    15    19    20   ar
    16    20    21   ar
    17    21    22   ar
    18    22    23   ar
    19    23    24   ar
    20    23    25    1
    21    25    26    1
    22    26    27    1
    23    27    28    2
    24     4     5    1
    25     5     6    1
    26    12    13   ar
    27    13    14   ar
    28    14     9   ar
    29     6     1    1
    30    24    19   ar
    31    27    22    1
@<TRIPOS>MOLECULE
*****
 28 31 0 0 0
SMALL
GASTEIGER

@<TRIPOS>ATOM
      1 N         143.0964  143.7232  162.9121 N.3     1  UNL1       -0.2700
      2 C         142.5260  144.8106  163.7736 C.3     1  UNL1        0.0897
      3 C         141.0802  145.1889  163.6447 C.3     1  UNL1        0.0897
      4 N         140.2049  144.4797  162.6543 N.3     1  UNL1       -0.2700
      5 C         140.7752  143.3923  161.7929 C.3     1  UNL1        0.0897
      6 C         142.2210  143.0141  161.9218 C.3     1  UNL1        0.0897
      7 C         144.5422  143.3449  163.0410 C.3     1  UNL1        0.0769
      8 C         144.9555  142.2831  164.0165 C.3     1  UNL1        0.0437
      9 C         142.0243  140.7803  167.0823 C.ar    1  UNL1        0.0684
     10 C         142.3154  139.9626  165.8590 C.ar    1  UNL1        0.0100
     11 C         143.2924  140.4635  164.8370 C.ar    1  UNL1       -0.0035
     12 C         143.9785  141.7822  165.0384 C.ar    1  UNL1       -0.0207
     13 C         143.6874  142.5999  166.2618 C.ar    1  UNL1       -0.0035
     14 C         142.7103  142.0989  167.2838 C.ar    1  UNL1        0.0100
     15 N         140.0701  139.7785  169.1263 N.1     1  UNL1       -0.1908
     16 C         141.0472  140.2793  168.1043 C.1     1  UNL1        0.1004
     17 C         138.7590  144.8580  162.5255 C.3     1  UNL1        0.0769
     18 C         137.7021  144.0125  163.1719 C.3     1  UNL1        0.0437
     19 C         137.9772  142.5693  163.4745 C.ar    1  UNL1       -0.0210
     20 C         138.4814  142.1701  164.8296 C.ar    1  UNL1       -0.0040
     21 C         138.7565  140.7269  165.1321 C.ar    1  UNL1        0.0059
     22 C         138.5275  139.6830  164.0796 C.ar    1  UNL1        0.0751
     23 C         138.0233  140.0823  162.7245 C.ar    1  UNL1        0.0272
     24 C         137.7482  141.5254  162.4219 C.ar    1  UNL1       -0.0047
     25 C         137.8928  138.8401  161.8940 C.3     1  UNL1        0.2356
     26 O         138.3163  137.6730  162.7358 O.3     1  UNL1       -0.4404
     27 C         138.7086  138.1940  164.0866 C.2     1  UNL1        0.3413
     28 O         139.1963  137.3705  165.2416 O.2     1  UNL1       -0.2449
@<TRIPOS>BOND
     1    15    16    3
     2    16     9    1
     3     9    10   ar
     4    10    11   ar
     5    11    12   ar
     6    12     8    1
     7     8     7    1
     8     7     1    1
     9     1     2    1
    10     2     3    1
    11     3     4    1
    12     4    17    1
    13    17    18    1
    14    18    19    1
    15    19    20   ar
    16    20    21   ar
    17    21    22   ar
    18    22    23   ar
    19    23    24   ar
    20    23    25    1
    21    25    26    1
    22    26    27    1
    23    27    28    2
    24     4     5    1
    25     5     6    1
    26    12    13   ar
    27    13    14   ar
    28    14     9   ar
    29     6     1    1
    30    24    19   ar
    31    27    22    1
@<TRIPOS>MOLECULE
*****
 28 31 0 0 0
SMALL
GASTEIGER

@<TRIPOS>ATOM
      1 N         139.2848  138.8898  164.4157 N.3     1  UNL1       -0.2700
      2 C         140.2474  137.7859  164.7393 C.3     1  UNL1        0.0897
      3 C         141.3218  137.4166  163.7599 C.3     1  UNL1        0.0897
      4 N         141.4336  138.1513  162.4569 N.3     1  UNL1       -0.2700
      5 C         140.4710  139.2551  162.1333 C.3     1  UNL1        0.0897
      6 C         139.3966  139.6244  163.1127 C.3     1  UNL1        0.0897
      7 C         138.2104  139.2591  165.3952 C.3     1  UNL1        0.0769
      8 C         138.4281  139.0443  166.8636 C.3     1  UNL1        0.0437
      9 C         141.0525  141.8676  169.1856 C.ar    1  UNL1        0.0684
     10 C         140.0531  141.0103  169.9041 C.ar    1  UNL1        0.0100
     11 C         139.1783  140.0692  169.1301 C.ar    1  UNL1       -0.0035
     12 C         139.3028  139.9854  167.6376 C.ar    1  UNL1       -0.0207
     13 C         140.3022  140.8427  166.9191 C.ar    1  UNL1       -0.0035
     14 C         141.1771  141.7838  167.6931 C.ar    1  UNL1        0.0100
     15 N         142.8021  143.7498  170.7336 N.1     1  UNL1       -0.1908
     16 C         141.9273  142.8087  169.9596 C.1     1  UNL1        0.1004
     17 C         142.5081  137.7819  161.4775 C.3     1  UNL1        0.0769
     18 C         143.8671  138.4079  161.5837 C.3     1  UNL1        0.0437
     19 C         144.0538  139.6648  162.3809 C.ar    1  UNL1       -0.0210
     20 C         144.4938  139.5863  163.8127 C.ar    1  UNL1       -0.0040
     21 C         144.6805  140.8432  164.6099 C.ar    1  UNL1        0.0059
     22 C         144.4270  142.1785  163.9752 C.ar    1  UNL1        0.0751
     23 C         143.9869  142.2569  162.5434 C.ar    1  UNL1        0.0272
     24 C         143.8003  141.0000  161.7463 C.ar    1  UNL1       -0.0047
     25 C         143.8142  143.7044  162.1902 C.3     1  UNL1        0.2356
     26 O         144.1476  144.5207  163.4037 O.3     1  UNL1       -0.4404
     27 C         144.5263  143.5776  164.5069 C.2     1  UNL1        0.3413
     28 O         144.9329  143.9654  165.8977 O.2     1  UNL1       -0.2449
@<TRIPOS>BOND
     1    15    16    3
     2    16     9    1
     3     9    10   ar
     4    10    11   ar
     5    11    12   ar
     6    12     8    1
     7     8     7    1
     8     7     1    1
     9     1     2    1
    10     2     3    1
    11     3     4    1
    12     4    17    1
    13    17    18    1
    14    18    19    1
    15    19    20   ar
    16    20    21   ar
    17    21    22   ar
    18    22    23   ar
    19    23    24   ar
    20    23    25    1
    21    25    26    1
    22    26    27    1
    23    27    28    2
    24     4     5    1
    25     5     6    1
    26    12    13   ar
    27    13    14   ar
    28    14     9   ar
    29     6     1    1
    30    24    19   ar
    31    27    22    1
@<TRIPOS>MOLECULE
*****
 28 31 0 0 0
SMALL
GASTEIGER

@<TRIPOS>ATOM
      1 N         138.5809  144.0789  162.8305 N.3     1  UNL1       -0.2700
      2 C         138.6060  143.8764  164.3165 C.3     1  UNL1        0.0897
      3 C         138.4277  142.5016  164.8892 C.3     1  UNL1        0.0897
      4 N         138.2243  141.3292  163.9758 N.3     1  UNL1       -0.2700
      5 C         138.1993  141.5317  162.4898 C.3     1  UNL1        0.0897
      6 C         138.3776  142.9065  161.9171 C.3     1  UNL1        0.0897
      7 C         138.7592  145.4538  162.2578 C.3     1  UNL1        0.0769
      8 C         140.1382  145.9954  162.0230 C.3     1  UNL1        0.0437
      9 C         143.7338  143.3926  162.7622 C.ar    1  UNL1        0.0684
     10 C         143.0289  143.3398  161.4391 C.ar    1  UNL1        0.0100
     11 C         141.8304  144.2074  161.1927 C.ar    1  UNL1       -0.0035
     12 C         141.3367  145.1278  162.2694 C.ar    1  UNL1       -0.0207
     13 C         142.0416  145.1806  163.5924 C.ar    1  UNL1       -0.0035
     14 C         143.2401  144.3129  163.8388 C.ar    1  UNL1        0.0100
     15 N         146.1309  141.6573  163.2549 N.1     1  UNL1       -0.1908
     16 C         144.9324  142.5249  163.0085 C.1     1  UNL1        0.1004
     17 C         138.0460  139.9543  164.5485 C.3     1  UNL1        0.0769
     18 C         139.2466  139.1187  164.8807 C.3     1  UNL1        0.0437
     19 C         140.0173  139.3805  166.1407 C.ar    1  UNL1       -0.0210
     20 C         141.5131  139.2690  166.1418 C.ar    1  UNL1       -0.0040
     21 C         142.2837  139.5308  167.4018 C.ar    1  UNL1        0.0059
     22 C         141.5586  139.9041  168.6606 C.ar    1  UNL1        0.0751
     23 C         140.0627  140.0156  168.6595 C.ar    1  UNL1        0.0272
     24 C         139.2921  139.7538  167.3996 C.ar    1  UNL1       -0.0047
     25 C         139.6255  140.3989  170.0422 C.3     1  UNL1        0.2356
     26 O         140.8511  140.5242  170.8980 O.3     1  UNL1       -0.4404
     27 C         142.0458  140.2184  170.0441 C.2     1  UNL1        0.3413
     28 O         143.4766  140.2257  170.4945 O.2     1  UNL1       -0.2449
@<TRIPOS>BOND
     1    15    16    3
     2    16     9    1
     3     9    10   ar
     4    10    11   ar
     5    11    12   ar
     6    12     8    1
     7     8     7    1
     8     7     1    1
     9     1     2    1
    10     2     3    1
    11     3     4    1
    12     4    17    1
    13    17    18    1
    14    18    19    1
    15    19    20   ar
    16    20    21   ar
    17    21    22   ar
    18    22    23   ar
    19    23    24   ar
    20    23    25    1
    21    25    26    1
    22    26    27    1
    23    27    28    2
    24     4     5    1
    25     5     6    1
    26    12    13   ar
    27    13    14   ar
    28    14     9   ar
    29     6     1    1
    30    24    19   ar
    31    27    22    1
@<TRIPOS>MOLECULE
*****
 28 31 0 0 0
SMALL
GASTEIGER

@<TRIPOS>ATOM
      1 N         138.4858  140.2795  161.1889 N.3     1  UNL1       -0.2700
      2 C         138.9080  141.5603  160.5322 C.3     1  UNL1        0.0897
      3 C         138.5917  142.8753  161.1807 C.3     1  UNL1        0.0897
      4 N         137.8533  142.9096  162.4859 N.3     1  UNL1       -0.2700
      5 C         137.4312  141.6288  163.1426 C.3     1  UNL1        0.0897
      6 C         137.7474  140.3138  162.4941 C.3     1  UNL1        0.0897
      7 C         138.8021  138.9644  160.5404 C.3     1  UNL1        0.0769
      8 C         140.1746  138.3739  160.6723 C.3     1  UNL1        0.0437
      9 C         142.2497  138.3745  164.6653 C.ar    1  UNL1        0.0684
     10 C         142.6013  139.4086  163.6372 C.ar    1  UNL1        0.0100
     11 C         141.9097  139.4084  162.3062 C.ar    1  UNL1       -0.0035
     12 C         140.8663  138.3741  162.0033 C.ar    1  UNL1       -0.0207
     13 C         140.5147  137.3400  163.0314 C.ar    1  UNL1       -0.0035
     14 C         141.2065  137.3402  164.3625 C.ar    1  UNL1        0.0100
     15 N         143.6332  138.3751  167.3273 N.1     1  UNL1       -0.1908
     16 C         142.9415  138.3748  165.9963 C.1     1  UNL1        0.1004
     17 C         137.5371  144.2247  163.1344 C.3     1  UNL1        0.0769
     18 C         138.2961  144.6624  164.3518 C.3     1  UNL1        0.0437
     19 C         139.7024  144.1878  164.5698 C.ar    1  UNL1       -0.0210
     20 C         140.8022  144.6614  163.6665 C.ar    1  UNL1       -0.0040
     21 C         142.2083  144.1869  163.8844 C.ar    1  UNL1        0.0059
     22 C         142.5146  143.2387  165.0057 C.ar    1  UNL1        0.0751
     23 C         141.4148  142.7650  165.9089 C.ar    1  UNL1        0.0272
     24 C         140.0086  143.2396  165.6910 C.ar    1  UNL1       -0.0047
     25 C         142.0152  141.8375  166.9234 C.3     1  UNL1        0.2356
     26 O         143.4862  141.7378  166.6470 O.3     1  UNL1       -0.4404
     27 C         143.7949  142.6038  165.4618 C.2     1  UNL1        0.3413
     28 O         145.1464  142.8004  164.8417 O.2     1  UNL1       -0.2449
@<TRIPOS>BOND
     1    15    16    3
     2    16     9    1
     3     9    10   ar
     4    10    11   ar
     5    11    12   ar
     6    12     8    1
     7     8     7    1
     8     7     1    1
     9     1     2    1
    10     2     3    1
    11     3     4    1
    12     4    17    1
    13    17    18    1
    14    18    19    1
    15    19    20   ar
    16    20    21   ar
    17    21    22   ar
    18    22    23   ar
    19    23    24   ar
    20    23    25    1
    21    25    26    1
    22    26    27    1
    23    27    28    2
    24     4     5    1
    25     5     6    1
    26    12    13   ar
    27    13    14   ar
    28    14     9   ar
    29     6     1    1
    30    24    19   ar
    31    27    22    1
