@<TRIPOS>MOLECULE
*****
 25 27 0 0 0
SMALL
GASTEIGER

@<TRIPOS>ATOM
      1 N         140.9519  140.6785  169.6003 N.am    1  UNL1       -0.2752
      2 C         140.8690  140.5667  168.1068 C.3     1  UNL1        0.1206
      3 C         140.5659  141.7807  167.2795 C.3     1  UNL1        0.1141
      4 C         140.2628  142.9947  166.4522 C.3     1  UNL1        0.0463
      5 C         140.1800  142.8829  164.9587 C.3     1  UNL1        0.0746
      6 N         140.4002  141.5572  164.2925 N.3     1  UNL1       -0.2722
      7 C         140.7033  140.3432  165.1197 C.3     1  UNL1        0.0746
      8 C         140.7861  140.4550  166.6132 C.3     1  UNL1        0.0463
      9 O         140.3457  143.1065  167.9457 O.3     1  UNL1       -0.3501
     10 C         140.4286  143.2182  169.4393 C.3     1  UNL1        0.1909
     11 C         140.2084  144.5440  170.1056 C.3     1  UNL1        0.0420
     12 C         140.7317  142.0043  170.2666 C.2     1  UNL1        0.2529
     13 O         140.8146  142.1160  171.7601 O.2     1  UNL1       -0.2722
     14 C         142.5142  138.6865  170.1845 C.3     1  UNL1        0.0233
     15 C         141.2550  139.4645  170.4276 C.3     1  UNL1        0.0936
     16 C         140.3173  141.4454  162.7989 C.3     1  UNL1        0.0769
     17 C         141.5317  141.0605  162.0070 C.3     1  UNL1        0.0460
     18 C         142.8992  141.2360  162.5981 C.ar    1  UNL1        0.0089
     19 C         143.5651  142.5795  162.5619 C.ar    1  UNL1       -0.0019
     20 C         144.9325  142.7550  163.1530 C.ar    1  UNL1        0.0021
     21 C         145.6339  141.5869  163.7803 C.ar    1  UNL1        0.0319
     22 C         144.9680  140.2433  163.8165 C.ar    1  UNL1        0.1671
     23 F         145.6695  139.0752  164.4437 F       1  UNL1       -0.2018
     24 C         143.6006  140.0679  163.2254 C.ar    1  UNL1        0.1634
     25 F         142.9346  138.7243  163.2616 F       1  UNL1       -0.2021
@<TRIPOS>BOND
     1    14    15    1
     2    15     1    1
     3     1     2    1
     4     2     3    1
     5     3     4    1
     6     4     5    1
     7     5     6    1
     8     6    16    1
     9    16    17    1
    10    17    18    1
    11    18    19   ar
    12    19    20   ar
    13    20    21   ar
    14    21    22   ar
    15    22    23    1
    16    22    24   ar
    17    24    25    1
    18     6     7    1
    19     7     8    1
    20     3     9    1
    21     9    10    1
    22    10    11    1
    23    10    12    1
    24    12    13    2
    25    12     1   am
    26     8     3    1
    27    24    18   ar
@<TRIPOS>MOLECULE
*****
 25 27 0 0 0
SMALL
GASTEIGER

@<TRIPOS>ATOM
      1 N         141.8682  140.7683  169.4181 N.am    1  UNL1       -0.2752
      2 C         141.8214  140.6036  167.9279 C.3     1  UNL1        0.1206
      3 C         140.5263  140.2652  167.2510 C.3     1  UNL1        0.1141
      4 C         139.2312  139.9269  166.5741 C.3     1  UNL1        0.0463
      5 C         139.1844  139.7622  165.0839 C.3     1  UNL1        0.0746
      6 N         140.4328  139.9358  164.2706 N.3     1  UNL1       -0.2722
      7 C         141.7279  140.2741  164.9475 C.3     1  UNL1        0.0746
      8 C         141.7746  140.4388  166.4377 C.3     1  UNL1        0.0463
      9 O         139.2779  140.0917  168.0642 O.3     1  UNL1       -0.3501
     10 C         139.3247  140.2564  169.5545 C.3     1  UNL1        0.1909
     11 C         138.0763  140.0829  170.3678 C.3     1  UNL1        0.0420
     12 C         140.6198  140.5947  170.2314 C.2     1  UNL1        0.2529
     13 O         140.6666  140.7595  171.7216 O.2     1  UNL1       -0.2722
     14 C         143.8742  142.3839  169.7585 C.3     1  UNL1        0.0233
     15 C         143.1633  141.1066  170.0950 C.3     1  UNL1        0.0936
     16 C         140.3860  139.7710  162.7804 C.3     1  UNL1        0.0769
     17 C         139.9148  140.9021  161.9152 C.3     1  UNL1        0.0460
     18 C         139.5837  142.2295  162.5305 C.ar    1  UNL1        0.0089
     19 C         138.1515  142.6217  162.7420 C.ar    1  UNL1       -0.0019
     20 C         137.8205  143.9490  163.3573 C.ar    1  UNL1        0.0021
     21 C         138.9217  144.8841  163.7610 C.ar    1  UNL1        0.0319
     22 C         140.3539  144.4918  163.5495 C.ar    1  UNL1        0.1671
     23 F         141.4551  145.4269  163.9533 F       1  UNL1       -0.2018
     24 C         140.6849  143.1645  162.9343 C.ar    1  UNL1        0.1634
     25 F         142.1172  142.7722  162.7227 F       1  UNL1       -0.2021
@<TRIPOS>BOND
     1    14    15    1
     2    15     1    1
     3     1     2    1
     4     2     3    1
     5     3     4    1
     6     4     5    1
     7     5     6    1
     8     6    16    1
     9    16    17    1
    10    17    18    1
    11    18    19   ar
    12    19    20   ar
    13    20    21   ar
    14    21    22   ar
    15    22    23    1
    16    22    24   ar
    17    24    25    1
    18     6     7    1
    19     7     8    1
    20     3     9    1
    21     9    10    1
    22    10    11    1
    23    10    12    1
    24    12    13    2
    25    12     1   am
    26     8     3    1
    27    24    18   ar
@<TRIPOS>MOLECULE
*****
 25 27 0 0 0
SMALL
GASTEIGER

@<TRIPOS>ATOM
      1 N         140.9212  141.4920  168.6208 N.am    1  UNL1       -0.2752
      2 C         140.7884  140.8170  167.2879 C.3     1  UNL1        0.1206
      3 C         139.6851  139.8277  167.0548 C.3     1  UNL1        0.1141
      4 C         138.5819  138.8386  166.8217 C.3     1  UNL1        0.0463
      5 C         138.4491  138.1636  165.4888 C.3     1  UNL1        0.0746
      6 N         139.4195  138.4777  164.3890 N.3     1  UNL1       -0.2722
      7 C         140.5227  139.4669  164.6220 C.3     1  UNL1        0.0746
      8 C         140.6556  140.1419  165.9549 C.3     1  UNL1        0.0463
      9 O         138.7147  139.5136  168.1546 O.3     1  UNL1       -0.3501
     10 C         138.8476  140.1887  169.4875 C.3     1  UNL1        0.1909
     11 C         137.8771  139.8746  170.5873 C.3     1  UNL1        0.0420
     12 C         139.9508  141.1778  169.7206 C.2     1  UNL1        0.2529
     13 O         140.0837  141.8529  171.0536 O.2     1  UNL1       -0.2722
     14 C         143.3311  142.0249  169.4324 C.3     1  UNL1        0.0233
     15 C         142.0245  142.4812  168.8539 C.3     1  UNL1        0.0936
     16 C         139.2866  137.8026  163.0560 C.3     1  UNL1        0.0769
     17 C         138.2408  138.2618  162.0837 C.3     1  UNL1        0.0460
     18 C         138.3493  139.6170  161.4499 C.ar    1  UNL1        0.0089
     19 C         138.9254  139.7566  160.0720 C.ar    1  UNL1       -0.0019
     20 C         139.0339  141.1117  159.4382 C.ar    1  UNL1        0.0021
     21 C         138.5662  142.3273  160.1823 C.ar    1  UNL1        0.0319
     22 C         137.9901  142.1877  161.5602 C.ar    1  UNL1        0.1671
     23 F         137.5224  143.4033  162.3042 F       1  UNL1       -0.2018
     24 C         137.8816  140.8326  162.1939 C.ar    1  UNL1        0.1634
     25 F         137.3054  140.6929  163.5719 F       1  UNL1       -0.2021
@<TRIPOS>BOND
     1    14    15    1
     2    15     1    1
     3     1     2    1
     4     2     3    1
     5     3     4    1
     6     4     5    1
     7     5     6    1
     8     6    16    1
     9    16    17    1
    10    17    18    1
    11    18    19   ar
    12    19    20   ar
    13    20    21   ar
    14    21    22   ar
    15    22    23    1
    16    22    24   ar
    17    24    25    1
    18     6     7    1
    19     7     8    1
    20     3     9    1
    21     9    10    1
    22    10    11    1
    23    10    12    1
    24    12    13    2
    25    12     1   am
    26     8     3    1
    27    24    18   ar
@<TRIPOS>MOLECULE
*****
 25 27 0 0 0
SMALL
GASTEIGER

@<TRIPOS>ATOM
      1 N         141.8967  143.5699  162.6286 N.am    1  UNL1       -0.2752
      2 C         141.0717  142.9004  163.6874 C.3     1  UNL1        0.1206
      3 C         141.6107  141.7031  164.4129 C.3     1  UNL1        0.1141
      4 C         142.1496  140.5059  165.1382 C.3     1  UNL1        0.0463
      5 C         141.3246  139.8364  166.1970 C.3     1  UNL1        0.0746
      6 N         139.9607  140.3641  166.5305 N.3     1  UNL1       -0.2722
      7 C         139.4217  141.5613  165.8051 C.3     1  UNL1        0.0746
      8 C         140.2467  142.2308  164.7463 C.3     1  UNL1        0.0463
      9 O         142.9746  141.1754  164.0794 O.3     1  UNL1       -0.3501
     10 C         143.7996  141.8450  163.0206 C.3     1  UNL1        0.1909
     11 C         145.1636  141.3173  162.6871 C.3     1  UNL1        0.0420
     12 C         143.2607  143.0422  162.2952 C.2     1  UNL1        0.2529
     13 O         144.0857  143.7118  161.2363 O.2     1  UNL1       -0.2722
     14 C         140.1313  145.4639  162.4135 C.3     1  UNL1        0.0233
     15 C         141.3577  144.7671  161.9032 C.3     1  UNL1        0.0936
     16 C         139.1357  139.6945  167.5893 C.3     1  UNL1        0.0769
     17 C         139.2376  140.1453  169.0163 C.3     1  UNL1        0.0460
     18 C         140.2970  141.1283  169.4185 C.ar    1  UNL1        0.0089
     19 C         139.9580  142.5833  169.5523 C.ar    1  UNL1       -0.0019
     20 C         141.0174  143.5662  169.9545 C.ar    1  UNL1        0.0021
     21 C         142.4156  143.0940  170.2228 C.ar    1  UNL1        0.0319
     22 C         142.7545  141.6390  170.0890 C.ar    1  UNL1        0.1671
     23 F         144.1527  141.1668  170.3574 F       1  UNL1       -0.2018
     24 C         141.6952  140.6561  169.6869 C.ar    1  UNL1        0.1634
     25 F         142.0341  139.2010  169.5530 F       1  UNL1       -0.2021
@<TRIPOS>BOND
     1    14    15    1
     2    15     1    1
     3     1     2    1
     4     2     3    1
     5     3     4    1
     6     4     5    1
     7     5     6    1
     8     6    16    1
     9    16    17    1
    10    17    18    1
    11    18    19   ar
    12    19    20   ar
    13    20    21   ar
    14    21    22   ar
    15    22    23    1
    16    22    24   ar
    17    24    25    1
    18     6     7    1
    19     7     8    1
    20     3     9    1
    21     9    10    1
    22    10    11    1
    23    10    12    1
    24    12    13    2
    25    12     1   am
    26     8     3    1
    27    24    18   ar
@<TRIPOS>MOLECULE
*****
 25 27 0 0 0
SMALL
GASTEIGER

@<TRIPOS>ATOM
      1 N         143.4807  141.9093  162.8718 N.am    1  UNL1       -0.2752
      2 C         142.7277  141.2237  163.9731 C.3     1  UNL1        0.1206
      3 C         141.3389  141.6697  164.3228 C.3     1  UNL1        0.1141
      4 C         139.9501  142.1157  164.6725 C.3     1  UNL1        0.0463
      5 C         139.1971  141.4301  165.7738 C.3     1  UNL1        0.0746
      6 N         139.8330  140.2984  166.5254 N.3     1  UNL1       -0.2722
      7 C         141.2217  139.8524  166.1758 C.3     1  UNL1        0.0746
      8 C         141.9747  140.5380  165.0745 C.3     1  UNL1        0.0463
      9 O         140.7030  142.8014  163.5712 O.3     1  UNL1       -0.3501
     10 C         141.4560  143.4871  162.4698 C.3     1  UNL1        0.1909
     11 C         140.8202  144.6187  161.7182 C.3     1  UNL1        0.0420
     12 C         142.8448  143.0410  162.1202 C.2     1  UNL1        0.2529
     13 O         143.5978  143.7267  161.0188 O.2     1  UNL1       -0.2722
     14 C         145.9817  141.6253  163.5155 C.3     1  UNL1        0.0233
     15 C         144.8695  141.4633  162.5221 C.3     1  UNL1        0.0936
     16 C         139.0800  139.6127  167.6268 C.3     1  UNL1        0.0769
     17 C         139.1985  140.1080  169.0377 C.3     1  UNL1        0.0460
     18 C         140.2669  141.0973  169.3980 C.ar    1  UNL1        0.0089
     19 C         139.9373  142.5579  169.4874 C.ar    1  UNL1       -0.0019
     20 C         141.0057  143.5471  169.8478 C.ar    1  UNL1        0.0021
     21 C         142.4037  143.0758  170.1187 C.ar    1  UNL1        0.0319
     22 C         142.7333  141.6152  170.0293 C.ar    1  UNL1        0.1671
     23 F         144.1314  141.1439  170.3002 F       1  UNL1       -0.2018
     24 C         141.6649  140.6260  169.6689 C.ar    1  UNL1        0.1634
     25 F         141.9945  139.1653  169.5795 F       1  UNL1       -0.2021
@<TRIPOS>BOND
     1    14    15    1
     2    15     1    1
     3     1     2    1
     4     2     3    1
     5     3     4    1
     6     4     5    1
     7     5     6    1
     8     6    16    1
     9    16    17    1
    10    17    18    1
    11    18    19   ar
    12    19    20   ar
    13    20    21   ar
    14    21    22   ar
    15    22    23    1
    16    22    24   ar
    17    24    25    1
    18     6     7    1
    19     7     8    1
    20     3     9    1
    21     9    10    1
    22    10    11    1
    23    10    12    1
    24    12    13    2
    25    12     1   am
    26     8     3    1
    27    24    18   ar
@<TRIPOS>MOLECULE
*****
 25 27 0 0 0
SMALL
GASTEIGER

@<TRIPOS>ATOM
      1 N         141.4407  140.7797  168.7974 N.am    1  UNL1       -0.2752
      2 C         140.8369  141.6540  167.7387 C.3     1  UNL1        0.1206
      3 C         141.1710  141.4230  166.2947 C.3     1  UNL1        0.1141
      4 C         141.5052  141.1919  164.8508 C.3     1  UNL1        0.0463
      5 C         140.9014  142.0662  163.7921 C.3     1  UNL1        0.0746
      6 N         139.9635  143.1716  164.1772 N.3     1  UNL1       -0.2722
      7 C         139.6293  143.4027  165.6211 C.3     1  UNL1        0.0746
      8 C         140.2331  142.5284  166.6799 C.3     1  UNL1        0.0463
      9 O         142.1090  140.3176  165.9095 O.3     1  UNL1       -0.3501
     10 C         142.7128  139.4432  166.9684 C.3     1  UNL1        0.1909
     11 C         143.6507  138.3379  166.5832 C.3     1  UNL1        0.0420
     12 C         142.3786  139.6743  168.4123 C.2     1  UNL1        0.2529
     13 O         142.9824  138.8000  169.4711 O.2     1  UNL1       -0.2722
     14 C         140.2493  142.1769  170.6355 C.3     1  UNL1        0.0233
     15 C         141.1065  141.0108  170.2414 C.3     1  UNL1        0.0936
     16 C         139.3597  144.0460  163.1184 C.3     1  UNL1        0.0769
     17 C         138.1006  143.6208  162.4228 C.3     1  UNL1        0.0460
     18 C         138.1000  142.3982  161.5537 C.ar    1  UNL1        0.0089
     19 C         138.4749  142.5075  160.1054 C.ar    1  UNL1       -0.0019
     20 C         138.4743  141.2849  159.2363 C.ar    1  UNL1        0.0021
     21 C         138.0989  139.9531  159.8155 C.ar    1  UNL1        0.0319
     22 C         137.7241  139.8439  161.2638 C.ar    1  UNL1        0.1671
     23 F         137.3487  138.5122  161.8430 F       1  UNL1       -0.2018
     24 C         137.7246  141.0665  162.1329 C.ar    1  UNL1        0.1634
     25 F         137.3498  140.9573  163.5812 F       1  UNL1       -0.2021
@<TRIPOS>BOND
     1    14    15    1
     2    15     1    1
     3     1     2    1
     4     2     3    1
     5     3     4    1
     6     4     5    1
     7     5     6    1
     8     6    16    1
     9    16    17    1
    10    17    18    1
    11    18    19   ar
    12    19    20   ar
    13    20    21   ar
    14    21    22   ar
    15    22    23    1
    16    22    24   ar
    17    24    25    1
    18     6     7    1
    19     7     8    1
    20     3     9    1
    21     9    10    1
    22    10    11    1
    23    10    12    1
    24    12    13    2
    25    12     1   am
    26     8     3    1
    27    24    18   ar
@<TRIPOS>MOLECULE
*****
 25 27 0 0 0
SMALL
GASTEIGER

@<TRIPOS>ATOM
      1 N         139.1896  142.3916  162.6274 N.am    1  UNL1       -0.2752
      2 C         139.8055  141.4556  163.6246 C.3     1  UNL1        0.1206
      3 C         141.0463  141.8589  164.3650 C.3     1  UNL1        0.1141
      4 C         142.2869  142.2622  165.1053 C.3     1  UNL1        0.0463
      5 C         142.9028  141.3262  166.1025 C.3     1  UNL1        0.0746
      6 N         142.2781  139.9869  166.3594 N.3     1  UNL1       -0.2722
      7 C         141.0374  139.5836  165.6191 C.3     1  UNL1        0.0746
      8 C         140.4215  140.5196  164.6219 C.3     1  UNL1        0.0463
      9 O         141.6710  143.1982  164.1080 O.3     1  UNL1       -0.3501
     10 C         141.0550  144.1342  163.1107 C.3     1  UNL1        0.1909
     11 C         141.6798  145.4735  162.8538 C.3     1  UNL1        0.0420
     12 C         139.8144  143.7309  162.3705 C.2     1  UNL1        0.2529
     13 O         139.1984  144.6669  161.3732 O.2     1  UNL1       -0.2722
     14 C         137.6469  140.5360  161.6647 C.3     1  UNL1        0.0233
     15 C         137.9489  141.9884  161.8871 C.3     1  UNL1        0.0936
     16 C         142.8941  139.0509  167.3567 C.3     1  UNL1        0.0769
     17 C         142.7056  139.2898  168.8255 C.3     1  UNL1        0.0460
     18 C         141.7585  140.3533  169.2969 C.ar    1  UNL1        0.0089
     19 C         140.3053  140.0333  169.4858 C.ar    1  UNL1       -0.0019
     20 C         139.3583  141.0967  169.9572 C.ar    1  UNL1        0.0021
     21 C         139.8645  142.4801  170.2397 C.ar    1  UNL1        0.0319
     22 C         141.3177  142.8002  170.0509 C.ar    1  UNL1        0.1671
     23 F         141.8239  144.1836  170.3334 F       1  UNL1       -0.2018
     24 C         142.2647  141.7367  169.5794 C.ar    1  UNL1        0.1634
     25 F         143.7180  142.0567  169.3905 F       1  UNL1       -0.2021
@<TRIPOS>BOND
     1    14    15    1
     2    15     1    1
     3     1     2    1
     4     2     3    1
     5     3     4    1
     6     4     5    1
     7     5     6    1
     8     6    16    1
     9    16    17    1
    10    17    18    1
    11    18    19   ar
    12    19    20   ar
    13    20    21   ar
    14    21    22   ar
    15    22    23    1
    16    22    24   ar
    17    24    25    1
    18     6     7    1
    19     7     8    1
    20     3     9    1
    21     9    10    1
    22    10    11    1
    23    10    12    1
    24    12    13    2
    25    12     1   am
    26     8     3    1
    27    24    18   ar
@<TRIPOS>MOLECULE
*****
 25 27 0 0 0
SMALL
GASTEIGER

@<TRIPOS>ATOM
      1 N         140.3838  141.7144  167.9996 N.am    1  UNL1       -0.2752
      2 C         140.6427  142.4975  166.7467 C.3     1  UNL1        0.1206
      3 C         140.0754  142.0298  165.4392 C.3     1  UNL1        0.1141
      4 C         139.5080  141.5622  164.1318 C.3     1  UNL1        0.0463
      5 C         139.7669  142.3452  162.8789 C.3     1  UNL1        0.0746
      6 N         140.5932  143.5959  162.9334 N.3     1  UNL1       -0.2722
      7 C         141.1606  144.0636  164.2408 C.3     1  UNL1        0.0746
      8 C         140.9017  143.2805  165.4937 C.3     1  UNL1        0.0463
      9 O         139.2491  140.7791  165.3847 O.3     1  UNL1       -0.3501
     10 C         138.9902  139.9961  166.6377 C.3     1  UNL1        0.1909
     11 C         138.1639  138.7453  166.5831 C.3     1  UNL1        0.0420
     12 C         139.5575  140.4637  167.9451 C.2     1  UNL1        0.2529
     13 O         139.2986  139.6807  169.1980 O.2     1  UNL1       -0.2722
     14 C         140.3884  143.4012  169.9757 C.3     1  UNL1        0.0233
     15 C         140.9512  142.1821  169.3071 C.3     1  UNL1        0.0936
     16 C         140.8521  144.3790  161.6805 C.3     1  UNL1        0.0769
     17 C         142.0451  144.0593  160.8293 C.3     1  UNL1        0.0460
     18 C         142.8996  142.8694  161.1521 C.ar    1  UNL1        0.0089
     19 C         142.5570  141.5239  160.5845 C.ar    1  UNL1       -0.0019
     20 C         143.4115  140.3341  160.9073 C.ar    1  UNL1        0.0021
     21 C         144.6085  140.4898  161.7977 C.ar    1  UNL1        0.0319
     22 C         144.9511  141.8353  162.3653 C.ar    1  UNL1        0.1671
     23 F         146.1482  141.9910  163.2558 F       1  UNL1       -0.2018
     24 C         144.0966  143.0251  162.0425 C.ar    1  UNL1        0.1634
     25 F         144.4392  144.3707  162.6101 F       1  UNL1       -0.2021
@<TRIPOS>BOND
     1    14    15    1
     2    15     1    1
     3     1     2    1
     4     2     3    1
     5     3     4    1
     6     4     5    1
     7     5     6    1
     8     6    16    1
     9    16    17    1
    10    17    18    1
    11    18    19   ar
    12    19    20   ar
    13    20    21   ar
    14    21    22   ar
    15    22    23    1
    16    22    24   ar
    17    24    25    1
    18     6     7    1
    19     7     8    1
    20     3     9    1
    21     9    10    1
    22    10    11    1
    23    10    12    1
    24    12    13    2
    25    12     1   am
    26     8     3    1
    27    24    18   ar
@<TRIPOS>MOLECULE
*****
 25 27 0 0 0
SMALL
GASTEIGER

@<TRIPOS>ATOM
      1 N         139.4557  139.5148  166.7619 N.am    1  UNL1       -0.2752
      2 C         140.5023  140.0527  165.8317 C.3     1  UNL1        0.1206
      3 C         141.4638  141.1002  166.3097 C.3     1  UNL1        0.1141
      4 C         142.4252  142.1476  166.7877 C.3     1  UNL1        0.0463
      5 C         143.4717  142.6855  165.8575 C.3     1  UNL1        0.0746
      6 N         143.5568  142.1760  164.4492 N.3     1  UNL1       -0.2722
      7 C         142.5954  141.1286  163.9712 C.3     1  UNL1        0.0746
      8 C         141.5488  140.5907  164.9014 C.3     1  UNL1        0.0463
      9 O         141.3787  141.6096  167.7180 O.3     1  UNL1       -0.3501
     10 C         140.3321  141.0717  168.6482 C.3     1  UNL1        0.1909
     11 C         140.2470  141.5811  170.0565 C.3     1  UNL1        0.0420
     12 C         139.3707  140.0243  168.1702 C.2     1  UNL1        0.2529
     13 O         138.3241  139.4863  169.1005 O.2     1  UNL1       -0.2722
     14 C         138.8381  137.6204  165.0947 C.3     1  UNL1        0.0233
     15 C         138.4942  138.4674  166.2839 C.3     1  UNL1        0.0936
     16 C         144.6034  142.7140  163.5190 C.3     1  UNL1        0.0769
     17 C         144.3161  143.9306  162.6900 C.3     1  UNL1        0.0460
     18 C         142.9739  144.0963  162.0411 C.ar    1  UNL1        0.0089
     19 C         142.6979  143.4538  160.7141 C.ar    1  UNL1       -0.0019
     20 C         141.3557  143.6195  160.0653 C.ar    1  UNL1        0.0021
     21 C         140.2894  144.4276  160.7436 C.ar    1  UNL1        0.0319
     22 C         140.5654  145.0701  162.0707 C.ar    1  UNL1        0.1671
     23 F         139.4992  145.8782  162.7489 F       1  UNL1       -0.2018
     24 C         141.9076  144.9044  162.7194 C.ar    1  UNL1        0.1634
     25 F         142.1837  145.5468  164.0465 F       1  UNL1       -0.2021
@<TRIPOS>BOND
     1    14    15    1
     2    15     1    1
     3     1     2    1
     4     2     3    1
     5     3     4    1
     6     4     5    1
     7     5     6    1
     8     6    16    1
     9    16    17    1
    10    17    18    1
    11    18    19   ar
    12    19    20   ar
    13    20    21   ar
    14    21    22   ar
    15    22    23    1
    16    22    24   ar
    17    24    25    1
    18     6     7    1
    19     7     8    1
    20     3     9    1
    21     9    10    1
    22    10    11    1
    23    10    12    1
    24    12    13    2
    25    12     1   am
    26     8     3    1
    27    24    18   ar
