@<TRIPOS>MOLECULE
*****
 31 34 0 0 0
SMALL
GASTEIGER

@<TRIPOS>ATOM
      1 C         140.0825  139.5703  161.0848 C.ar    1  UNL1       -0.0176
      2 C         139.5827  138.2350  161.5506 C.ar    1  UNL1       -0.0039
      3 C         139.3145  138.0013  163.0078 C.ar    1  UNL1       -0.0003
      4 C         139.5461  139.1029  163.9991 C.ar    1  UNL1       -0.0003
      5 C         140.0459  140.4383  163.5333 C.ar    1  UNL1       -0.0003
      6 C         140.3141  140.6719  162.0761 C.ar    1  UNL1       -0.0039
      7 C         139.2779  138.8691  165.4563 C.2     1  UNL1       -0.0032
      8 C         139.6146  139.9311  166.4608 C.2     1  UNL1       -0.0088
      9 C         139.3464  139.6972  167.9179 C.3     1  UNL1        0.0993
     10 N         140.3352  140.1606  168.9463 N.3     1  UNL1       -0.2597
     11 C         141.7770  139.7625  168.8333 C.3     1  UNL1        0.0942
     12 C         142.7658  140.2258  169.8617 C.3     1  UNL1        0.1068
     13 N         142.3128  141.0874  171.0031 N.am    1  UNL1       -0.3018
     14 C         140.8710  141.4856  171.1160 C.2     1  UNL1        0.2389
     15 O         140.4180  142.3471  172.2573 O.2     1  UNL1       -0.2736
     16 C         139.8822  141.0221  170.0876 C.3     1  UNL1        0.1587
     17 H         142.9618  141.3915  171.6780 H       1  UNL1        0.1495
     18 C         140.3507  139.8041  159.6275 C.3     1  UNL1        0.0570
     19 C         142.5326  138.3293  159.1698 C.ar    1  UNL1        0.0782
     20 N         142.9417  137.3376  158.1214 N.ar    1  UNL1       -0.1687
     21 N         141.8105  137.2011  157.1458 N.ar    1  UNL1       -0.2168
     22 C         141.6464  136.3678  155.9094 C.ar    1  UNL1        0.0636
     23 C         142.7547  135.4605  155.4640 C.3     1  UNL1        0.0522
     24 C         140.3741  136.4419  155.1185 C.ar    1  UNL1        0.0296
     25 C         139.2658  137.3493  155.5639 C.ar    1  UNL1        0.0622
     26 C         137.9934  137.4233  154.7729 C.3     1  UNL1        0.0522
     27 N         139.4299  138.1825  156.8003 N.ar    1  UNL1       -0.2311
     28 C         140.7022  138.1085  157.5913 C.ar    1  UNL1        0.1604
     29 C         141.1485  138.8057  158.8421 C.ar    1  UNL1        0.0332
     30 C         143.3157  137.9933  161.6241 C.3     1  UNL1        0.0067
     31 C         143.3619  138.7676  160.3403 C.3     1  UNL1        0.0474
@<TRIPOS>BOND
     1    30    31    1
     2    31    19    1
     3    19    20   ar
     4    20    21   ar
     5    21    22   ar
     6    22    23    1
     7    22    24   ar
     8    24    25   ar
     9    25    26    1
    10    25    27   ar
    11    27    28   ar
    12    28    29   ar
    13    29    18    1
    14    18     1    1
    15     1     2   ar
    16     2     3   ar
    17     3     4   ar
    18     4     7    1
    19     7     8    2
    20     8     9    1
    21     9    10    1
    22    10    11    1
    23    11    12    1
    24    12    13    1
    25    13    14   am
    26    14    15    2
    27    14    16    1
    28     4     5   ar
    29     5     6   ar
    30    29    19   ar
    31     6     1   ar
    32    28    21   ar
    33    16    10    1
    34    13    17    1
@<TRIPOS>MOLECULE
*****
 31 34 0 0 0
SMALL
GASTEIGER

@<TRIPOS>ATOM
      1 C         138.3526  138.9495  162.4335 C.ar    1  UNL1       -0.0176
      2 C         138.8613  137.8448  163.3115 C.ar    1  UNL1       -0.0039
      3 C         139.0276  138.0739  164.7845 C.ar    1  UNL1       -0.0003
      4 C         138.6852  139.4077  165.3795 C.ar    1  UNL1       -0.0003
      5 C         138.1765  140.5123  164.5014 C.ar    1  UNL1       -0.0003
      6 C         138.0102  140.2832  163.0284 C.ar    1  UNL1       -0.0039
      7 C         138.8515  139.6367  166.8525 C.2     1  UNL1       -0.0032
      8 C         140.2256  139.7467  167.4441 C.2     1  UNL1       -0.0088
      9 C         140.3918  139.9757  168.9172 C.3     1  UNL1        0.0993
     10 N         141.0311  141.2391  169.4122 N.3     1  UNL1       -0.2597
     11 C         142.5002  141.2680  169.7138 C.3     1  UNL1        0.0942
     12 C         143.1395  142.5314  170.2088 C.3     1  UNL1        0.1068
     13 N         142.3097  143.7660  170.4023 N.am    1  UNL1       -0.3018
     14 C         140.8406  143.7371  170.1007 C.2     1  UNL1        0.2389
     15 O         140.0108  144.9716  170.2942 O.2     1  UNL1       -0.2736
     16 C         140.2014  142.4737  169.6057 C.3     1  UNL1        0.1587
     17 H         142.7293  144.5953  170.7272 H       1  UNL1        0.1495
     18 C         138.1863  138.7204  160.9603 C.3     1  UNL1        0.0570
     19 C         140.5569  139.6100  160.1038 C.ar    1  UNL1        0.0782
     20 N         141.0301  140.3882  158.9119 N.ar    1  UNL1       -0.1687
     21 N         139.8372  140.6972  158.0566 N.ar    1  UNL1       -0.2168
     22 C         139.6969  141.4374  156.7596 C.ar    1  UNL1        0.0636
     23 C         140.9074  142.0246  156.0963 C.3     1  UNL1        0.0522
     24 C         138.3460  141.5904  156.1258 C.ar    1  UNL1        0.0296
     25 C         137.1355  141.0033  156.7890 C.ar    1  UNL1        0.0622
     26 C         135.7846  141.1563  156.1552 C.3     1  UNL1        0.0522
     27 N         137.2759  140.2631  158.0861 N.ar    1  UNL1       -0.2311
     28 C         138.6267  140.1101  158.7199 C.ar    1  UNL1        0.1604
     29 C         139.0715  139.4382  159.9851 C.ar    1  UNL1        0.0332
     30 C         142.3440  137.9392  160.9781 C.3     1  UNL1        0.0067
     31 C         141.4179  139.0943  161.2186 C.3     1  UNL1        0.0474
@<TRIPOS>BOND
     1    30    31    1
     2    31    19    1
     3    19    20   ar
     4    20    21   ar
     5    21    22   ar
     6    22    23    1
     7    22    24   ar
     8    24    25   ar
     9    25    26    1
    10    25    27   ar
    11    27    28   ar
    12    28    29   ar
    13    29    18    1
    14    18     1    1
    15     1     2   ar
    16     2     3   ar
    17     3     4   ar
    18     4     7    1
    19     7     8    2
    20     8     9    1
    21     9    10    1
    22    10    11    1
    23    11    12    1
    24    12    13    1
    25    13    14   am
    26    14    15    2
    27    14    16    1
    28     4     5   ar
    29     5     6   ar
    30    29    19   ar
    31     6     1   ar
    32    28    21   ar
    33    16    10    1
    34    13    17    1
@<TRIPOS>MOLECULE
*****
 31 34 0 0 0
SMALL
GASTEIGER

@<TRIPOS>ATOM
      1 C         137.9413  140.4961  161.7118 C.ar    1  UNL1       -0.0176
      2 C         138.4718  139.1488  162.1037 C.ar    1  UNL1       -0.0039
      3 C         138.6373  138.8007  163.5532 C.ar    1  UNL1       -0.0003
      4 C         138.2723  139.7996  164.6110 C.ar    1  UNL1       -0.0003
      5 C         137.7418  141.1469  164.2192 C.ar    1  UNL1       -0.0003
      6 C         137.5763  141.4951  162.7696 C.ar    1  UNL1       -0.0039
      7 C         138.4378  139.4514  166.0606 C.2     1  UNL1       -0.0032
      8 C         139.4324  140.1952  166.9019 C.2     1  UNL1       -0.0088
      9 C         139.5978  139.8468  168.3514 C.3     1  UNL1        0.0993
     10 N         140.2918  140.8011  169.2776 N.3     1  UNL1       -0.2597
     11 C         141.3454  140.2993  170.2199 C.3     1  UNL1        0.0942
     12 C         142.0394  141.2536  171.1460 C.3     1  UNL1        0.1068
     13 N         141.6797  142.7099  171.1298 N.am    1  UNL1       -0.3018
     14 C         140.6261  143.2117  170.1874 C.2     1  UNL1        0.2389
     15 O         140.2664  144.6678  170.1711 O.2     1  UNL1       -0.2736
     16 C         139.9322  142.2573  169.2613 C.3     1  UNL1        0.1587
     17 H         142.1352  143.3362  171.7376 H       1  UNL1        0.1495
     18 C         137.7757  140.8444  160.2622 C.3     1  UNL1        0.0570
     19 C         139.6407  140.8095  158.3475 C.ar    1  UNL1        0.0782
     20 N         140.7100  141.7572  157.8912 N.ar    1  UNL1       -0.1687
     21 N         140.6500  142.9777  158.7611 N.ar    1  UNL1       -0.2168
     22 C         141.4599  144.2401  158.7766 C.ar    1  UNL1        0.0636
     23 C         142.5664  144.4335  157.7825 C.3     1  UNL1        0.0522
     24 C         141.1633  145.3091  159.7861 C.ar    1  UNL1        0.0296
     25 C         140.0567  145.1157  160.7801 C.ar    1  UNL1        0.0622
     26 C         139.7601  146.1848  161.7897 C.3     1  UNL1        0.0522
     27 N         139.2468  143.8533  160.7647 N.ar    1  UNL1       -0.2311
     28 C         139.5435  142.7843  159.7552 C.ar    1  UNL1        0.1604
     29 C         138.9197  141.4443  159.4996 C.ar    1  UNL1        0.0332
     30 C         140.0808  138.2511  158.2435 C.3     1  UNL1        0.0067
     31 C         139.3443  139.4634  157.7558 C.3     1  UNL1        0.0474
@<TRIPOS>BOND
     1    30    31    1
     2    31    19    1
     3    19    20   ar
     4    20    21   ar
     5    21    22   ar
     6    22    23    1
     7    22    24   ar
     8    24    25   ar
     9    25    26    1
    10    25    27   ar
    11    27    28   ar
    12    28    29   ar
    13    29    18    1
    14    18     1    1
    15     1     2   ar
    16     2     3   ar
    17     3     4   ar
    18     4     7    1
    19     7     8    2
    20     8     9    1
    21     9    10    1
    22    10    11    1
    23    11    12    1
    24    12    13    1
    25    13    14   am
    26    14    15    2
    27    14    16    1
    28     4     5   ar
    29     5     6   ar
    30    29    19   ar
    31     6     1   ar
    32    28    21   ar
    33    16    10    1
    34    13    17    1
@<TRIPOS>MOLECULE
*****
 31 34 0 0 0
SMALL
GASTEIGER

@<TRIPOS>ATOM
      1 C         143.5326  139.0789  161.5823 C.ar    1  UNL1       -0.0176
      2 C         144.4668  139.7783  162.5248 C.ar    1  UNL1       -0.0039
      3 C         144.3233  139.5835  164.0051 C.ar    1  UNL1       -0.0003
      4 C         143.2457  138.6894  164.5430 C.ar    1  UNL1       -0.0003
      5 C         142.3115  137.9900  163.6006 C.ar    1  UNL1       -0.0003
      6 C         142.4550  138.1848  162.1202 C.ar    1  UNL1       -0.0039
      7 C         143.1023  138.4946  166.0234 C.2     1  UNL1       -0.0032
      8 C         142.7261  139.6527  166.8993 C.2     1  UNL1       -0.0088
      9 C         142.5827  139.4579  168.3797 C.3     1  UNL1        0.0993
     10 N         142.5618  140.6468  169.2940 N.3     1  UNL1       -0.2597
     11 C         143.6381  141.6870  169.1964 C.3     1  UNL1        0.0942
     12 C         143.6172  142.8760  170.1108 C.3     1  UNL1        0.1068
     13 N         142.5200  143.0247  171.1228 N.am    1  UNL1       -0.3018
     14 C         141.4437  141.9845  171.2204 C.2     1  UNL1        0.2389
     15 O         140.3465  142.1331  172.2323 O.2     1  UNL1       -0.2736
     16 C         141.4646  140.7956  170.3060 C.3     1  UNL1        0.1587
     17 H         142.5063  143.8050  171.7229 H       1  UNL1        0.1495
     18 C         143.6761  139.2737  160.1019 C.3     1  UNL1        0.0570
     19 C         141.2621  139.9270  159.1579 C.ar    1  UNL1        0.0782
     20 N         140.3429  139.3634  158.1152 N.ar    1  UNL1       -0.1687
     21 N         141.0066  138.1602  157.5136 N.ar    1  UNL1       -0.2168
     22 C         140.5721  137.2053  156.4416 C.ar    1  UNL1        0.0636
     23 C         139.2427  137.3853  155.7705 C.3     1  UNL1        0.0522
     24 C         141.4671  136.0703  156.0405 C.ar    1  UNL1        0.0296
     25 C         142.7965  135.8903  156.7116 C.ar    1  UNL1        0.0622
     26 C         143.6915  134.7553  156.3105 C.3     1  UNL1        0.0522
     27 N         143.2309  136.8452  157.7836 N.ar    1  UNL1       -0.2311
     28 C         142.3360  137.9802  158.1846 C.ar    1  UNL1        0.1604
     29 C         142.4939  139.0721  159.2009 C.ar    1  UNL1        0.0332
     30 C         139.9304  141.0879  161.0629 C.3     1  UNL1        0.0067
     31 C         140.9962  141.1336  160.0085 C.3     1  UNL1        0.0474
@<TRIPOS>BOND
     1    30    31    1
     2    31    19    1
     3    19    20   ar
     4    20    21   ar
     5    21    22   ar
     6    22    23    1
     7    22    24   ar
     8    24    25   ar
     9    25    26    1
    10    25    27   ar
    11    27    28   ar
    12    28    29   ar
    13    29    18    1
    14    18     1    1
    15     1     2   ar
    16     2     3   ar
    17     3     4   ar
    18     4     7    1
    19     7     8    2
    20     8     9    1
    21     9    10    1
    22    10    11    1
    23    11    12    1
    24    12    13    1
    25    13    14   am
    26    14    15    2
    27    14    16    1
    28     4     5   ar
    29     5     6   ar
    30    29    19   ar
    31     6     1   ar
    32    28    21   ar
    33    16    10    1
    34    13    17    1
@<TRIPOS>MOLECULE
*****
 31 34 0 0 0
SMALL
GASTEIGER

@<TRIPOS>ATOM
      1 C         142.2754  143.1664  162.3480 C.ar    1  UNL1       -0.0176
      2 C         142.8763  143.7350  163.5993 C.ar    1  UNL1       -0.0039
      3 C         142.4819  143.1846  164.9377 C.ar    1  UNL1       -0.0003
      4 C         141.4867  142.0657  165.0250 C.ar    1  UNL1       -0.0003
      5 C         140.8858  141.4971  163.7737 C.ar    1  UNL1       -0.0003
      6 C         141.2802  142.0475  162.4352 C.ar    1  UNL1       -0.0039
      7 C         141.0924  141.5154  166.3635 C.2     1  UNL1       -0.0032
      8 C         140.0358  140.4546  166.4567 C.2     1  UNL1       -0.0088
      9 C         139.6416  139.9044  167.7953 C.3     1  UNL1        0.0993
     10 N         140.5035  140.1623  168.9955 N.3     1  UNL1       -0.2597
     11 C         141.8463  139.5038  169.1101 C.3     1  UNL1        0.0942
     12 C         142.7082  139.7618  170.3104 C.3     1  UNL1        0.1068
     13 N         142.2272  140.6784  171.3961 N.am    1  UNL1       -0.3018
     14 C         140.8843  141.3369  171.2815 C.2     1  UNL1        0.2389
     15 O         140.4033  142.2534  172.3671 O.2     1  UNL1       -0.2736
     16 C         140.0225  141.0788  170.0812 C.3     1  UNL1        0.1587
     17 H         142.7928  140.8477  172.1839 H       1  UNL1        0.1495
     18 C         142.6697  143.7167  161.0094 C.3     1  UNL1        0.0570
     19 C         140.5986  145.3956  160.8179 C.ar    1  UNL1        0.0782
     20 N         139.8927  146.0845  159.6878 N.ar    1  UNL1       -0.1687
     21 N         140.5663  145.6853  158.4083 N.ar    1  UNL1       -0.2168
     22 C         140.3027  146.0528  156.9782 C.ar    1  UNL1        0.0636
     23 C         139.1804  146.9884  156.6388 C.3     1  UNL1        0.0522
     24 C         141.1615  145.4848  155.8874 C.ar    1  UNL1        0.0296
     25 C         142.2838  144.5493  156.2268 C.ar    1  UNL1        0.0622
     26 C         143.1426  143.9812  155.1359 C.3     1  UNL1        0.0522
     27 N         142.5473  144.1817  157.6569 N.ar    1  UNL1       -0.2311
     28 C         141.6886  144.7497  158.7477 C.ar    1  UNL1        0.1604
     29 C         141.7085  144.5707  160.2369 C.ar    1  UNL1        0.0332
     30 C         138.9618  144.9498  162.7856 C.3     1  UNL1        0.0067
     31 C         140.2549  145.5114  162.2734 C.3     1  UNL1        0.0474
@<TRIPOS>BOND
     1    30    31    1
     2    31    19    1
     3    19    20   ar
     4    20    21   ar
     5    21    22   ar
     6    22    23    1
     7    22    24   ar
     8    24    25   ar
     9    25    26    1
    10    25    27   ar
    11    27    28   ar
    12    28    29   ar
    13    29    18    1
    14    18     1    1
    15     1     2   ar
    16     2     3   ar
    17     3     4   ar
    18     4     7    1
    19     7     8    2
    20     8     9    1
    21     9    10    1
    22    10    11    1
    23    11    12    1
    24    12    13    1
    25    13    14   am
    26    14    15    2
    27    14    16    1
    28     4     5   ar
    29     5     6   ar
    30    29    19   ar
    31     6     1   ar
    32    28    21   ar
    33    16    10    1
    34    13    17    1
@<TRIPOS>MOLECULE
*****
 31 34 0 0 0
SMALL
GASTEIGER

@<TRIPOS>ATOM
      1 C         144.6856  141.6654  161.7466 C.ar    1  UNL1       -0.0176
      2 C         144.1270  140.2763  161.6545 C.ar    1  UNL1       -0.0039
      3 C         143.7780  139.5240  162.9044 C.ar    1  UNL1       -0.0003
      4 C         143.9874  140.1608  164.2463 C.ar    1  UNL1       -0.0003
      5 C         144.5460  141.5498  164.3383 C.ar    1  UNL1       -0.0003
      6 C         144.8951  142.3021  163.0884 C.ar    1  UNL1       -0.0039
      7 C         143.6384  139.4084  165.4961 C.2     1  UNL1       -0.0032
      8 C         142.9361  140.1085  166.6216 C.2     1  UNL1       -0.0088
      9 C         142.5871  139.3561  167.8714 C.3     1  UNL1        0.0993
     10 N         141.8821  140.0555  168.9956 N.3     1  UNL1       -0.2597
     11 C         142.6651  140.8781  169.9755 C.3     1  UNL1        0.0942
     12 C         141.9602  141.5775  171.0998 C.3     1  UNL1        0.1068
     13 N         140.4721  141.4543  171.2441 N.am    1  UNL1       -0.3018
     14 C         139.6891  140.6317  170.2642 C.2     1  UNL1        0.2389
     15 O         138.2012  140.5085  170.4084 O.2     1  UNL1       -0.2736
     16 C         140.3942  139.9323  169.1400 C.3     1  UNL1        0.1587
     17 H         140.0095  141.9134  171.9820 H       1  UNL1        0.1495
     18 C         145.0347  142.4177  160.4966 C.3     1  UNL1        0.0570
     19 C         143.9124  142.3413  158.0719 C.ar    1  UNL1        0.0782
     20 N         142.6706  142.9181  157.4592 N.ar    1  UNL1       -0.1687
     21 N         141.9530  143.7026  158.5174 N.ar    1  UNL1       -0.2168
     22 C         140.6759  144.4888  158.4912 C.ar    1  UNL1        0.0636
     23 C         139.8776  144.5808  157.2246 C.3     1  UNL1        0.0522
     24 C         140.1970  145.1830  159.7316 C.ar    1  UNL1        0.0296
     25 C         140.9952  145.0910  160.9982 C.ar    1  UNL1        0.0622
     26 C         140.5163  145.7853  162.2387 C.3     1  UNL1        0.0522
     27 N         142.2724  144.3049  161.0244 N.ar    1  UNL1       -0.2311
     28 C         142.7513  143.6107  159.7840 C.ar    1  UNL1        0.1604
     29 C         143.9622  142.7693  159.5086 C.ar    1  UNL1        0.0332
     30 C         146.2148  142.0892  156.8950 C.3     1  UNL1        0.0067
     31 C         144.9263  141.4866  157.3708 C.3     1  UNL1        0.0474
@<TRIPOS>BOND
     1    30    31    1
     2    31    19    1
     3    19    20   ar
     4    20    21   ar
     5    21    22   ar
     6    22    23    1
     7    22    24   ar
     8    24    25   ar
     9    25    26    1
    10    25    27   ar
    11    27    28   ar
    12    28    29   ar
    13    29    18    1
    14    18     1    1
    15     1     2   ar
    16     2     3   ar
    17     3     4   ar
    18     4     7    1
    19     7     8    2
    20     8     9    1
    21     9    10    1
    22    10    11    1
    23    11    12    1
    24    12    13    1
    25    13    14   am
    26    14    15    2
    27    14    16    1
    28     4     5   ar
    29     5     6   ar
    30    29    19   ar
    31     6     1   ar
    32    28    21   ar
    33    16    10    1
    34    13    17    1
@<TRIPOS>MOLECULE
*****
 31 34 0 0 0
SMALL
GASTEIGER

@<TRIPOS>ATOM
      1 C         138.4807  139.8335  162.7933 C.ar    1  UNL1       -0.0176
      2 C         139.1218  138.4886  162.6191 C.ar    1  UNL1       -0.0039
      3 C         139.5864  138.0493  161.2622 C.ar    1  UNL1       -0.0003
      4 C         139.4098  138.9549  160.0795 C.ar    1  UNL1       -0.0003
      5 C         138.7688  140.2998  160.2537 C.ar    1  UNL1       -0.0003
      6 C         138.3042  140.7390  161.6106 C.ar    1  UNL1       -0.0039
      7 C         139.8744  138.5155  158.7227 C.2     1  UNL1       -0.0032
      8 C         141.3111  138.6908  158.3286 C.2     1  UNL1       -0.0088
      9 C         141.7756  138.2514  156.9717 C.3     1  UNL1        0.0993
     10 N         141.9493  136.7914  156.6750 N.3     1  UNL1       -0.2597
     11 C         141.0951  136.1308  155.6338 C.3     1  UNL1        0.0942
     12 C         141.2688  134.6708  155.3371 C.3     1  UNL1        0.1068
     13 N         142.2968  133.8712  156.0815 N.am    1  UNL1       -0.3018
     14 C         143.1511  134.5317  157.1226 C.2     1  UNL1        0.2389
     15 O         144.1790  133.7323  157.8670 O.2     1  UNL1       -0.2736
     16 C         142.9773  135.9918  157.4193 C.3     1  UNL1        0.1587
     17 H         142.4109  132.9129  155.8867 H       1  UNL1        0.1495
     18 C         138.0161  140.2728  164.1503 C.3     1  UNL1        0.0570
     19 C         138.8458  139.5110  166.5743 C.ar    1  UNL1        0.0782
     20 N         140.0260  139.8347  167.4417 N.ar    1  UNL1       -0.1687
     21 N         140.8869  140.8177  166.7050 N.ar    1  UNL1       -0.2168
     22 C         142.1772  141.4911  167.0678 C.ar    1  UNL1        0.0636
     23 C         142.8254  141.2073  168.3904 C.3     1  UNL1        0.0522
     24 C         142.8194  142.4482  166.1078 C.ar    1  UNL1        0.0296
     25 C         142.1713  142.7319  164.7852 C.ar    1  UNL1        0.0622
     26 C         142.8135  143.6891  163.8252 C.3     1  UNL1        0.0522
     27 N         140.8810  142.0586  164.4225 N.ar    1  UNL1       -0.2311
     28 C         140.2388  141.1015  165.3824 C.ar    1  UNL1        0.1604
     29 C         138.9773  140.2938  165.3016 C.ar    1  UNL1        0.0332
     30 C         137.7818  137.1437  166.4564 C.3     1  UNL1        0.0067
     31 C         137.7300  138.5696  166.9192 C.3     1  UNL1        0.0474
@<TRIPOS>BOND
     1    30    31    1
     2    31    19    1
     3    19    20   ar
     4    20    21   ar
     5    21    22   ar
     6    22    23    1
     7    22    24   ar
     8    24    25   ar
     9    25    26    1
    10    25    27   ar
    11    27    28   ar
    12    28    29   ar
    13    29    18    1
    14    18     1    1
    15     1     2   ar
    16     2     3   ar
    17     3     4   ar
    18     4     7    1
    19     7     8    2
    20     8     9    1
    21     9    10    1
    22    10    11    1
    23    11    12    1
    24    12    13    1
    25    13    14   am
    26    14    15    2
    27    14    16    1
    28     4     5   ar
    29     5     6   ar
    30    29    19   ar
    31     6     1   ar
    32    28    21   ar
    33    16    10    1
    34    13    17    1
@<TRIPOS>MOLECULE
*****
 31 34 0 0 0
SMALL
GASTEIGER

@<TRIPOS>ATOM
      1 C         138.8760  140.0945  160.9251 C.ar    1  UNL1       -0.0176
      2 C         137.6521  140.7229  161.5228 C.ar    1  UNL1       -0.0039
      3 C         137.5358  140.8709  163.0109 C.ar    1  UNL1       -0.0003
      4 C         138.6433  140.3907  163.9013 C.ar    1  UNL1       -0.0003
      5 C         139.8672  139.7623  163.3035 C.ar    1  UNL1       -0.0003
      6 C         139.9835  139.6143  161.8154 C.ar    1  UNL1       -0.0039
      7 C         138.5269  140.5387  165.3894 C.2     1  UNL1       -0.0032
      8 C         138.9450  139.4144  166.2901 C.2     1  UNL1       -0.0088
      9 C         138.8285  139.5626  167.7781 C.3     1  UNL1        0.0993
     10 N         139.9623  140.1515  168.5641 N.3     1  UNL1       -0.2597
     11 C         141.3649  140.0607  168.0403 C.3     1  UNL1        0.0942
     12 C         142.4987  140.6496  168.8263 C.3     1  UNL1        0.1068
     13 N         142.2298  141.3294  170.1362 N.am    1  UNL1       -0.3018
     14 C         140.8271  141.4202  170.6600 C.2     1  UNL1        0.2389
     15 O         140.5582  142.0999  171.9698 O.2     1  UNL1       -0.2736
     16 C         139.6934  140.8313  169.8739 C.3     1  UNL1        0.1587
     17 H         142.9739  141.7159  170.6521 H       1  UNL1        0.1495
     18 C         138.9924  139.9465  159.4368 C.3     1  UNL1        0.0570
     19 C         139.6897  142.3700  158.5505 C.ar    1  UNL1        0.0782
     20 N         139.1637  143.3090  157.5057 N.ar    1  UNL1       -0.1687
     21 N         137.9747  142.6632  156.8583 N.ar    1  UNL1       -0.2168
     22 C         137.0552  143.1207  155.7650 C.ar    1  UNL1        0.0636
     23 C         137.2641  144.4590  155.1204 C.3     1  UNL1        0.0522
     24 C         135.9269  142.2401  155.3164 C.ar    1  UNL1        0.0296
     25 C         135.7181  140.9018  155.9610 C.ar    1  UNL1        0.0622
     26 C         134.5897  140.0211  155.5123 C.3     1  UNL1        0.0522
     27 N         136.6375  140.4443  157.0542 N.ar    1  UNL1       -0.2311
     28 C         137.7658  141.3249  157.5029 C.ar    1  UNL1        0.1604
     29 C         138.8257  141.1437  158.5487 C.ar    1  UNL1        0.0332
     30 C         140.6830  143.2747  160.7741 C.3     1  UNL1        0.0067
     31 C         140.8720  142.6142  159.4407 C.3     1  UNL1        0.0474
@<TRIPOS>BOND
     1    30    31    1
     2    31    19    1
     3    19    20   ar
     4    20    21   ar
     5    21    22   ar
     6    22    23    1
     7    22    24   ar
     8    24    25   ar
     9    25    26    1
    10    25    27   ar
    11    27    28   ar
    12    28    29   ar
    13    29    18    1
    14    18     1    1
    15     1     2   ar
    16     2     3   ar
    17     3     4   ar
    18     4     7    1
    19     7     8    2
    20     8     9    1
    21     9    10    1
    22    10    11    1
    23    11    12    1
    24    12    13    1
    25    13    14   am
    26    14    15    2
    27    14    16    1
    28     4     5   ar
    29     5     6   ar
    30    29    19   ar
    31     6     1   ar
    32    28    21   ar
    33    16    10    1
    34    13    17    1
@<TRIPOS>MOLECULE
*****
 31 34 0 0 0
SMALL
GASTEIGER

@<TRIPOS>ATOM
      1 C         138.9301  138.7659  161.9571 C.ar    1  UNL1       -0.0176
      2 C         139.3488  137.6352  162.8495 C.ar    1  UNL1       -0.0039
      3 C         139.1405  137.7331  164.3317 C.ar    1  UNL1       -0.0003
      4 C         138.5135  138.9614  164.9215 C.ar    1  UNL1       -0.0003
      5 C         138.0947  140.0920  164.0292 C.ar    1  UNL1       -0.0003
      6 C         138.3030  139.9942  162.5469 C.ar    1  UNL1       -0.0039
      7 C         138.3052  139.0592  166.4038 C.2     1  UNL1       -0.0032
      8 C         139.2661  139.8448  167.2461 C.2     1  UNL1       -0.0088
      9 C         139.0577  139.9425  168.7283 C.3     1  UNL1        0.0993
     10 N         140.1566  140.4616  169.6075 N.3     1  UNL1       -0.2597
     11 C         140.0200  141.8021  170.2665 C.3     1  UNL1        0.0942
     12 C         141.1189  142.3212  171.1457 C.3     1  UNL1        0.1068
     13 N         142.3545  141.4996  171.3659 N.am    1  UNL1       -0.3018
     14 C         142.4912  140.1591  170.7069 C.2     1  UNL1        0.2389
     15 O         143.7268  139.3376  170.9270 O.2     1  UNL1       -0.2736
     16 C         141.3922  139.6401  169.8277 C.3     1  UNL1        0.1587
     17 H         143.0758  141.8403  171.9429 H       1  UNL1        0.1495
     18 C         139.1384  138.6681  160.4748 C.3     1  UNL1        0.0570
     19 C         140.0168  140.1825  158.4549 C.ar    1  UNL1        0.0782
     20 N         141.2703  140.9586  158.1783 N.ar    1  UNL1       -0.1687
     21 N         142.1867  140.7935  159.3543 N.ar    1  UNL1       -0.2168
     22 C         143.5580  141.3294  159.6410 C.ar    1  UNL1        0.0636
     23 C         144.2451  142.2075  158.6376 C.3     1  UNL1        0.0522
     24 C         144.2423  140.9871  160.9312 C.ar    1  UNL1        0.0296
     25 C         143.5552  140.1089  161.9346 C.ar    1  UNL1        0.0622
     26 C         144.2396  139.7666  163.2248 C.3     1  UNL1        0.0522
     27 N         142.1839  139.5731  161.6478 N.ar    1  UNL1       -0.2311
     28 C         141.4996  139.9154  160.3577 C.ar    1  UNL1        0.1604
     29 C         140.1586  139.5378  159.8018 C.ar    1  UNL1        0.0332
     30 C         137.6489  140.9750  157.7374 C.3     1  UNL1        0.0067
     31 C         138.8300  140.0708  157.5444 C.3     1  UNL1        0.0474
@<TRIPOS>BOND
     1    30    31    1
     2    31    19    1
     3    19    20   ar
     4    20    21   ar
     5    21    22   ar
     6    22    23    1
     7    22    24   ar
     8    24    25   ar
     9    25    26    1
    10    25    27   ar
    11    27    28   ar
    12    28    29   ar
    13    29    18    1
    14    18     1    1
    15     1     2   ar
    16     2     3   ar
    17     3     4   ar
    18     4     7    1
    19     7     8    2
    20     8     9    1
    21     9    10    1
    22    10    11    1
    23    11    12    1
    24    12    13    1
    25    13    14   am
    26    14    15    2
    27    14    16    1
    28     4     5   ar
    29     5     6   ar
    30    29    19   ar
    31     6     1   ar
    32    28    21   ar
    33    16    10    1
    34    13    17    1
