@<TRIPOS>MOLECULE
*****
 19 19 0 0 0
SMALL
GASTEIGER

@<TRIPOS>ATOM
      1 C         139.6695  141.1922  166.2689 C.1     1  UNL1       -0.0730
      2 C         138.8674  139.9315  166.4007 C.1     1  UNL1       -0.0893
      3 C         140.4716  142.4528  166.1370 C.3     1  UNL1        0.1498
      4 N         140.4568  143.2199  164.8480 N.3     1  UNL1       -0.2618
      5 C         141.4144  142.8610  163.7507 C.3     1  UNL1        0.0730
      6 C         141.1942  141.6186  162.9396 C.3     1  UNL1        0.0188
      7 C         139.4844  144.3457  164.6563 C.3     1  UNL1        0.0730
      8 C         138.0442  144.0503  164.3583 C.3     1  UNL1        0.0174
      9 C         137.4369  141.7441  163.3278 C.3     1  UNL1        0.0000
     10 C         137.6809  143.2152  163.1665 C.3     1  UNL1        0.0014
     11 C         138.0653  138.6709  166.5325 C.3     1  UNL1        0.0808
     12 C         138.4300  137.4618  165.7231 C.3     1  UNL1        0.0403
     13 C         139.3042  137.6053  164.5127 C.ar    1  UNL1       -0.0211
     14 C         140.7857  137.4015  164.6291 C.ar    1  UNL1       -0.0034
     15 C         141.6599  137.5450  163.4186 C.ar    1  UNL1        0.0111
     16 C         141.0526  137.8924  162.0918 C.ar    1  UNL1        0.0577
     17 CL        141.9269  138.0359  160.8814 Cl      1  UNL1       -0.0822
     18 C         139.5712  138.0962  161.9754 C.ar    1  UNL1        0.0111
     19 C         138.6969  137.9527  163.1858 C.ar    1  UNL1       -0.0034
@<TRIPOS>BOND
     1     9    10    1
     2    10     8    1
     3     8     7    1
     4     7     4    1
     5     4     5    1
     6     5     6    1
     7     4     3    1
     8     3     1    1
     9     1     2    3
    10     2    11    1
    11    11    12    1
    12    12    13    1
    13    13    14   ar
    14    14    15   ar
    15    15    16   ar
    16    16    17    1
    17    16    18   ar
    18    18    19   ar
    19    19    13   ar
@<TRIPOS>MOLECULE
*****
 19 19 0 0 0
SMALL
GASTEIGER

@<TRIPOS>ATOM
      1 C         139.1868  139.9058  168.2283 C.1     1  UNL1       -0.0730
      2 C         139.0280  139.3507  166.8438 C.1     1  UNL1       -0.0893
      3 C         139.3456  140.4608  169.6127 C.3     1  UNL1        0.1498
      4 N         140.6262  141.1342  170.0085 N.3     1  UNL1       -0.2618
      5 C         140.5952  142.5006  170.6265 C.3     1  UNL1        0.0730
      6 C         140.4494  143.7140  169.7569 C.3     1  UNL1        0.0188
      7 C         141.9378  140.4413  169.7862 C.3     1  UNL1        0.0730
      8 C         142.5474  140.4112  168.4159 C.3     1  UNL1        0.0174
      9 C         141.7305  142.1208  166.6384 C.3     1  UNL1        0.0000
     10 C         142.7453  141.6886  167.6549 C.3     1  UNL1        0.0014
     11 C         138.8692  138.7957  165.4594 C.3     1  UNL1        0.0808
     12 C         139.9993  138.0469  164.8174 C.3     1  UNL1        0.0403
     13 C         141.3386  138.7030  164.6572 C.ar    1  UNL1       -0.0211
     14 C         141.5062  139.8405  163.6939 C.ar    1  UNL1       -0.0034
     15 C         142.8455  140.4967  163.5338 C.ar    1  UNL1        0.0111
     16 C         144.0173  140.0153  164.3370 C.ar    1  UNL1        0.0577
     17 CL        145.3566  140.6715  164.1769 Cl      1  UNL1       -0.0822
     18 C         143.8498  138.8779  165.3003 C.ar    1  UNL1        0.0111
     19 C         142.5104  138.2217  165.4604 C.ar    1  UNL1       -0.0034
@<TRIPOS>BOND
     1     9    10    1
     2    10     8    1
     3     8     7    1
     4     7     4    1
     5     4     5    1
     6     5     6    1
     7     4     3    1
     8     3     1    1
     9     1     2    3
    10     2    11    1
    11    11    12    1
    12    12    13    1
    13    13    14   ar
    14    14    15   ar
    15    15    16   ar
    16    16    17    1
    17    16    18   ar
    18    18    19   ar
    19    19    13   ar
@<TRIPOS>MOLECULE
*****
 19 19 0 0 0
SMALL
GASTEIGER

@<TRIPOS>ATOM
      1 C         139.5325  140.0926  168.6508 C.1     1  UNL1       -0.0730
      2 C         139.1901  139.8563  167.2097 C.1     1  UNL1       -0.0893
      3 C         139.8749  140.3288  170.0920 C.3     1  UNL1        0.1498
      4 N         140.6662  141.5408  170.4859 N.3     1  UNL1       -0.2618
      5 C         139.9714  142.8526  170.7014 C.3     1  UNL1        0.0730
      6 C         140.3357  144.0411  169.8620 C.3     1  UNL1        0.0188
      7 C         142.1522  141.4409  170.6643 C.3     1  UNL1        0.0730
      8 C         143.0360  141.2036  169.4758 C.3     1  UNL1        0.0174
      9 C         142.3322  142.1228  167.1499 C.3     1  UNL1        0.0000
     10 C         143.1468  142.2465  168.4034 C.3     1  UNL1        0.0014
     11 C         138.8476  139.6201  165.7685 C.3     1  UNL1        0.0808
     12 C         138.3505  140.7529  164.9203 C.3     1  UNL1        0.0403
     13 C         139.2419  141.9259  164.6381 C.ar    1  UNL1       -0.0211
     14 C         138.8327  143.3011  165.0753 C.ar    1  UNL1       -0.0034
     15 C         139.7241  144.4741  164.7931 C.ar    1  UNL1        0.0111
     16 C         141.0246  144.2718  164.0737 C.ar    1  UNL1        0.0577
     17 CL        141.9160  145.4447  163.7915 Cl      1  UNL1       -0.0822
     18 C         141.4337  142.8965  163.6364 C.ar    1  UNL1        0.0111
     19 C         140.5424  141.7236  163.9186 C.ar    1  UNL1       -0.0034
@<TRIPOS>BOND
     1     9    10    1
     2    10     8    1
     3     8     7    1
     4     7     4    1
     5     4     5    1
     6     5     6    1
     7     4     3    1
     8     3     1    1
     9     1     2    3
    10     2    11    1
    11    11    12    1
    12    12    13    1
    13    13    14   ar
    14    14    15   ar
    15    15    16   ar
    16    16    17    1
    17    16    18   ar
    18    18    19   ar
    19    19    13   ar
@<TRIPOS>MOLECULE
*****
 19 19 0 0 0
SMALL
GASTEIGER

@<TRIPOS>ATOM
      1 C         137.7339  141.2663  162.8746 C.1     1  UNL1       -0.0730
      2 C         137.6461  142.6614  163.4185 C.1     1  UNL1       -0.0893
      3 C         137.8217  139.8711  162.3307 C.3     1  UNL1        0.1498
      4 N         139.0536  139.0492  162.5696 N.3     1  UNL1       -0.2618
      5 C         140.3682  139.4828  161.9918 C.3     1  UNL1        0.0730
      6 C         141.2405  140.4403  162.7482 C.3     1  UNL1        0.0188
      7 C         138.9708  137.7937  163.3861 C.3     1  UNL1        0.0730
      8 C         139.6115  137.7367  164.7413 C.3     1  UNL1        0.0174
      9 C         138.1272  139.3945  166.0823 C.3     1  UNL1        0.0000
     10 C         139.4849  138.8997  165.6802 C.3     1  UNL1        0.0014
     11 C         137.5582  144.0566  163.9625 C.3     1  UNL1        0.0808
     12 C         138.4863  144.4949  165.0563 C.3     1  UNL1        0.0403
     13 C         139.8733  143.9291  165.1347 C.ar    1  UNL1       -0.0211
     14 C         140.1951  142.8698  166.1467 C.ar    1  UNL1       -0.0034
     15 C         141.5821  142.3041  166.2251 C.ar    1  UNL1        0.0111
     16 C         142.6473  142.7976  165.2915 C.ar    1  UNL1        0.0577
     17 CL        144.0343  142.2319  165.3699 Cl      1  UNL1       -0.0822
     18 C         142.3255  143.8570  164.2795 C.ar    1  UNL1        0.0111
     19 C         140.9385  144.4227  164.2011 C.ar    1  UNL1       -0.0034
@<TRIPOS>BOND
     1     9    10    1
     2    10     8    1
     3     8     7    1
     4     7     4    1
     5     4     5    1
     6     5     6    1
     7     4     3    1
     8     3     1    1
     9     1     2    3
    10     2    11    1
    11    11    12    1
    12    12    13    1
    13    13    14   ar
    14    14    15   ar
    15    15    16   ar
    16    16    17    1
    17    16    18   ar
    18    18    19   ar
    19    19    13   ar
@<TRIPOS>MOLECULE
*****
 19 19 0 0 0
SMALL
GASTEIGER

@<TRIPOS>ATOM
      1 C         139.9497  140.3746  167.7188 C.1     1  UNL1       -0.0730
      2 C         138.9287  139.4651  167.1020 C.1     1  UNL1       -0.0893
      3 C         140.9707  141.2841  168.3356 C.3     1  UNL1        0.1498
      4 N         142.3503  141.3676  167.7526 N.3     1  UNL1       -0.2618
      5 C         143.3380  142.3540  168.3017 C.3     1  UNL1        0.0730
      6 C         143.7063  142.3167  169.7552 C.3     1  UNL1        0.0188
      7 C         142.7422  140.4647  166.6207 C.3     1  UNL1        0.0730
      8 C         142.8502  141.0115  165.2281 C.3     1  UNL1        0.0174
      9 C         140.5098  141.0809  164.1024 C.3     1  UNL1        0.0000
     10 C         141.7144  141.7950  164.6397 C.3     1  UNL1        0.0014
     11 C         137.9077  138.5557  166.4852 C.3     1  UNL1        0.0808
     12 C         138.3487  137.3552  165.7015 C.3     1  UNL1        0.0403
     13 C         139.2869  137.5192  164.5427 C.ar    1  UNL1       -0.0211
     14 C         140.7677  137.4111  164.7555 C.ar    1  UNL1       -0.0034
     15 C         141.7059  137.5752  163.5967 C.ar    1  UNL1        0.0111
     16 C         141.1633  137.8474  162.2251 C.ar    1  UNL1        0.0577
     17 CL        142.1015  138.0114  161.0662 Cl      1  UNL1       -0.0822
     18 C         139.6824  137.9555  162.0122 C.ar    1  UNL1        0.0111
     19 C         138.7442  137.7914  163.1710 C.ar    1  UNL1       -0.0034
@<TRIPOS>BOND
     1     9    10    1
     2    10     8    1
     3     8     7    1
     4     7     4    1
     5     4     5    1
     6     5     6    1
     7     4     3    1
     8     3     1    1
     9     1     2    3
    10     2    11    1
    11    11    12    1
    12    12    13    1
    13    13    14   ar
    14    14    15   ar
    15    15    16   ar
    16    16    17    1
    17    16    18   ar
    18    18    19   ar
    19    19    13   ar
@<TRIPOS>MOLECULE
*****
 19 19 0 0 0
SMALL
GASTEIGER

@<TRIPOS>ATOM
      1 C         137.9284  141.3155  163.7095 C.1     1  UNL1       -0.0730
      2 C         138.0415  140.2079  164.7149 C.1     1  UNL1       -0.0893
      3 C         137.8154  142.4230  162.7042 C.3     1  UNL1        0.1498
      4 N         138.4373  143.7585  162.9865 N.3     1  UNL1       -0.2618
      5 C         139.3816  144.3707  161.9948 C.3     1  UNL1        0.0730
      6 C         139.6050  145.8539  161.9887 C.3     1  UNL1        0.0188
      7 C         138.1150  144.4817  164.2605 C.3     1  UNL1        0.0730
      8 C         139.1578  144.6177  165.3302 C.3     1  UNL1        0.0174
      9 C         141.0744  142.8669  165.2260 C.3     1  UNL1        0.0000
     10 C         139.8323  143.3959  165.8797 C.3     1  UNL1        0.0014
     11 C         138.1545  139.1004  165.7202 C.3     1  UNL1        0.0808
     12 C         138.9220  137.8566  165.3827 C.3     1  UNL1        0.0403
     13 C         140.1552  137.9436  164.5332 C.ar    1  UNL1       -0.0211
     14 C         141.4482  138.4097  165.1336 C.ar    1  UNL1       -0.0034
     15 C         142.6814  138.4966  164.2841 C.ar    1  UNL1        0.0111
     16 C         142.6215  138.1174  162.8341 C.ar    1  UNL1        0.0577
     17 CL        143.8547  138.2043  161.9845 Cl      1  UNL1       -0.0822
     18 C         141.3284  137.6512  162.2336 C.ar    1  UNL1        0.0111
     19 C         140.0952  137.5643  163.0832 C.ar    1  UNL1       -0.0034
@<TRIPOS>BOND
     1     9    10    1
     2    10     8    1
     3     8     7    1
     4     7     4    1
     5     4     5    1
     6     5     6    1
     7     4     3    1
     8     3     1    1
     9     1     2    3
    10     2    11    1
    11    11    12    1
    12    12    13    1
    13    13    14   ar
    14    14    15   ar
    15    15    16   ar
    16    16    17    1
    17    16    18   ar
    18    18    19   ar
    19    19    13   ar
@<TRIPOS>MOLECULE
*****
 19 19 0 0 0
SMALL
GASTEIGER

@<TRIPOS>ATOM
      1 C         138.9697  140.9690  161.4563 C.1     1  UNL1       -0.0730
      2 C         139.5707  139.6574  161.8666 C.1     1  UNL1       -0.0893
      3 C         138.3687  142.2807  161.0461 C.3     1  UNL1        0.1498
      4 N         138.6066  143.5071  161.8764 N.3     1  UNL1       -0.2618
      5 C         139.7591  144.4140  161.5616 C.3     1  UNL1        0.0730
      6 C         139.7859  145.8104  162.1087 C.3     1  UNL1        0.0188
      7 C         137.6919  143.8265  163.0215 C.3     1  UNL1        0.0730
      8 C         137.7201  142.9832  164.2618 C.3     1  UNL1        0.0174
      9 C         140.0245  143.1902  165.4434 C.3     1  UNL1        0.0000
     10 C         139.0070  142.3615  164.7169 C.3     1  UNL1        0.0014
     11 C         140.1718  138.3457  162.2768 C.3     1  UNL1        0.0808
     12 C         139.6755  137.6454  163.5069 C.3     1  UNL1        0.0403
     13 C         139.6485  138.3671  164.8216 C.ar    1  UNL1       -0.0211
     14 C         140.8963  139.0108  165.3495 C.ar    1  UNL1       -0.0034
     15 C         140.8694  139.7325  166.6642 C.ar    1  UNL1        0.0111
     16 C         139.5947  139.8107  167.4509 C.ar    1  UNL1        0.0577
     17 CL        139.5678  140.5324  168.7656 Cl      1  UNL1       -0.0822
     18 C         138.3469  139.1670  166.9230 C.ar    1  UNL1        0.0111
     19 C         138.3738  138.4453  165.6083 C.ar    1  UNL1       -0.0034
@<TRIPOS>BOND
     1     9    10    1
     2    10     8    1
     3     8     7    1
     4     7     4    1
     5     4     5    1
     6     5     6    1
     7     4     3    1
     8     3     1    1
     9     1     2    3
    10     2    11    1
    11    11    12    1
    12    12    13    1
    13    13    14   ar
    14    14    15   ar
    15    15    16   ar
    16    16    17    1
    17    16    18   ar
    18    18    19   ar
    19    19    13   ar
@<TRIPOS>MOLECULE
*****
 19 19 0 0 0
SMALL
GASTEIGER

@<TRIPOS>ATOM
      1 C         139.7605  141.6192  165.6042 C.1     1  UNL1       -0.0730
      2 C         138.9734  140.3834  165.9256 C.1     1  UNL1       -0.0893
      3 C         140.5476  142.8551  165.2829 C.3     1  UNL1        0.1498
      4 N         141.6992  142.7827  164.3244 N.3     1  UNL1       -0.2618
      5 C         142.2532  144.0394  163.7214 C.3     1  UNL1        0.0730
      6 C         143.5859  144.5621  164.1694 C.3     1  UNL1        0.0188
      7 C         142.2967  141.4536  163.9690 C.3     1  UNL1        0.0730
      8 C         143.3962  140.8764  164.8105 C.3     1  UNL1        0.0174
      9 C         145.7184  141.4539  163.7989 C.3     1  UNL1        0.0000
     10 C         144.6795  140.4376  164.1698 C.3     1  UNL1        0.0014
     11 C         138.1863  139.1476  166.2470 C.3     1  UNL1        0.0808
     12 C         138.5364  137.8441  165.5926 C.3     1  UNL1        0.0403
     13 C         139.4831  137.8193  164.4293 C.ar    1  UNL1       -0.0211
     14 C         138.9572  137.9572  163.0313 C.ar    1  UNL1       -0.0034
     15 C         139.9038  137.9324  161.8680 C.ar    1  UNL1        0.0111
     16 C         141.3764  137.7698  162.1027 C.ar    1  UNL1        0.0577
     17 CL        142.3230  137.7450  160.9394 Cl      1  UNL1       -0.0822
     18 C         141.9023  137.6319  163.5007 C.ar    1  UNL1        0.0111
     19 C         140.9556  137.6567  164.6640 C.ar    1  UNL1       -0.0034
@<TRIPOS>BOND
     1     9    10    1
     2    10     8    1
     3     8     7    1
     4     7     4    1
     5     4     5    1
     6     5     6    1
     7     4     3    1
     8     3     1    1
     9     1     2    3
    10     2    11    1
    11    11    12    1
    12    12    13    1
    13    13    14   ar
    14    14    15   ar
    15    15    16   ar
    16    16    17    1
    17    16    18   ar
    18    18    19   ar
    19    19    13   ar
@<TRIPOS>MOLECULE
*****
 19 19 0 0 0
SMALL
GASTEIGER

@<TRIPOS>ATOM
      1 C         145.0254  140.7184  163.9584 C.1     1  UNL1       -0.0730
      2 C         144.4313  139.6338  164.8073 C.1     1  UNL1       -0.0893
      3 C         145.6196  141.8030  163.1094 C.3     1  UNL1        0.1498
      4 N         144.7418  142.6055  162.1953 N.3     1  UNL1       -0.2618
      5 C         144.3918  144.0218  162.5441 C.3     1  UNL1        0.0730
      6 C         143.7266  144.3295  163.8528 C.3     1  UNL1        0.0188
      7 C         144.2141  141.9918  160.9325 C.3     1  UNL1        0.0730
      8 C         142.7527  141.6785  160.8045 C.3     1  UNL1        0.0174
      9 C         141.3105  141.5571  162.9620 C.3     1  UNL1        0.0000
     10 C         142.0638  140.8688  161.8627 C.3     1  UNL1        0.0014
     11 C         143.8372  138.5492  165.6563 C.3     1  UNL1        0.0808
     12 C         142.4026  138.6341  166.0859 C.3     1  UNL1        0.0403
     13 C         141.3062  138.4741  165.0748 C.ar    1  UNL1       -0.0211
     14 C         139.9589  139.0835  165.3267 C.ar    1  UNL1       -0.0034
     15 C         138.8625  138.9235  164.3156 C.ar    1  UNL1        0.0111
     16 C         139.1133  138.1541  163.0527 C.ar    1  UNL1        0.0577
     17 CL        138.0169  137.9941  162.0417 Cl      1  UNL1       -0.0822
     18 C         140.4606  137.5446  162.8009 C.ar    1  UNL1        0.0111
     19 C         141.5570  137.7047  163.8119 C.ar    1  UNL1       -0.0034
@<TRIPOS>BOND
     1     9    10    1
     2    10     8    1
     3     8     7    1
     4     7     4    1
     5     4     5    1
     6     5     6    1
     7     4     3    1
     8     3     1    1
     9     1     2    3
    10     2    11    1
    11    11    12    1
    12    12    13    1
    13    13    14   ar
    14    14    15   ar
    15    15    16   ar
    16    16    17    1
    17    16    18   ar
    18    18    19   ar
    19    19    13   ar
