@<TRIPOS>MOLECULE
*****
 42 47 0 0 0
SMALL
GASTEIGER

@<TRIPOS>ATOM
      1 C         140.9548  141.6744  169.4534 C.ar    1  UNL1        0.0769
      2 C         142.0331  141.6849  168.4107 C.ar    1  UNL1        0.0065
      3 C         141.8920  140.8427  167.1774 C.ar    1  UNL1        0.0016
      4 C         140.6727  139.9901  166.9869 C.ar    1  UNL1        0.0191
      5 C         139.5945  139.9796  168.0296 C.ar    1  UNL1        0.0509
      6 C         139.7355  140.8218  169.2628 C.ar    1  UNL1        0.0211
      7 N         138.5143  139.0458  167.5700 N.am    1  UNL1       -0.2803
      8 C         138.9249  138.4792  166.2433 C.2     1  UNL1        0.2507
      9 O         138.1395  137.5007  165.4212 O.2     1  UNL1       -0.2698
     10 C         140.2590  139.0628  165.8829 C.2     1  UNL1        0.0682
     11 C         141.0418  138.7704  164.6372 C.2     1  UNL1        0.0527
     12 H         137.6819  138.8408  168.0541 H       1  UNL1        0.1552
     13 C         142.3686  139.4329  164.4123 C.ar    1  UNL1        0.0136
     14 C         142.4330  140.7777  163.7512 C.ar    1  UNL1        0.0012
     15 C         143.7599  141.4402  163.5263 C.ar    1  UNL1        0.0000
     16 C         145.0224  140.7577  163.9626 C.ar    1  UNL1        0.0000
     17 C         144.9580  139.4129  164.6238 C.ar    1  UNL1        0.0000
     18 C         143.6311  138.7505  164.8487 C.ar    1  UNL1        0.0012
     19 C         141.0959  142.5165  170.6866 C.2     1  UNL1        0.3414
     20 O         140.3317  142.1627  171.9279 O.2     1  UNL1       -0.2449
     21 C         143.4845  143.5313  170.8081 C.3     1  UNL1        0.2560
     22 O         142.0011  143.7125  170.6786 O.3     1  UNL1       -0.4413
     23 N         140.4977  137.8155  163.6163 N.pl3   1  UNL1       -0.3124
     24 H         140.4466  136.8537  163.8200 H       1  UNL1        0.1522
     25 C         140.0316  138.3261  162.2852 C.ar    1  UNL1        0.0495
     26 C         138.5984  138.7258  162.0952 C.ar    1  UNL1        0.0144
     27 C         138.1323  139.2364  160.7640 C.ar    1  UNL1       -0.0017
     28 C         139.0993  139.3472  159.6227 C.ar    1  UNL1       -0.0067
     29 C         140.5325  138.9475  159.8127 C.ar    1  UNL1        0.0511
     30 C         140.9987  138.4369  161.1439 C.ar    1  UNL1        0.0292
     31 N         141.2505  139.1651  158.5138 N.am    1  UNL1       -0.2574
     32 C         142.7030  138.8958  158.2533 C.2     1  UNL1        0.2457
     33 O         143.5745  138.3586  159.3496 O.2     1  UNL1       -0.2730
     34 C         140.2610  139.6994  157.5211 C.3     1  UNL1        0.1029
     35 C         138.9315  139.8120  158.2065 C.3     1  UNL1        0.0495
     36 C         143.2839  139.1636  156.8966 C.3     1  UNL1        0.1591
     37 N         144.3962  140.1576  156.7398 N.3     1  UNL1       -0.2607
     38 C         144.5175  141.3047  157.6986 C.3     1  UNL1        0.1050
     39 C         145.6299  142.2988  157.5419 C.3     1  UNL1        0.1595
     40 O         146.6209  142.1457  156.4264 O.3     1  UNL1       -0.3508
     41 C         146.4996  140.9985  155.4676 C.3     1  UNL1        0.1595
     42 C         145.3873  140.0045  155.6243 C.3     1  UNL1        0.1050
@<TRIPOS>BOND
     1    21    22    1
     2    22    19    1
     3    19    20    2
     4    19     1    1
     5     1     2   ar
     6     2     3   ar
     7     3     4   ar
     8     4     5   ar
     9     5     6   ar
    10     5     7    1
    11     7     8   am
    12     8     9    2
    13     8    10    1
    14    10    11    2
    15    11    23    1
    16    23    25    1
    17    25    26   ar
    18    26    27   ar
    19    27    28   ar
    20    28    29   ar
    21    29    30   ar
    22    29    31    1
    23    31    32   am
    24    32    33    2
    25    32    36    1
    26    36    37    1
    27    37    38    1
    28    38    39    1
    29    39    40    1
    30    40    41    1
    31    41    42    1
    32    31    34    1
    33    34    35    1
    34    11    13    1
    35    13    14   ar
    36    14    15   ar
    37    15    16   ar
    38    16    17   ar
    39    17    18   ar
    40     6     1   ar
    41    30    25   ar
    42    42    37    1
    43    18    13   ar
    44    10     4    1
    45    35    28    1
    46     7    12    1
    47    23    24    1
@<TRIPOS>MOLECULE
*****
 42 47 0 0 0
SMALL
GASTEIGER

@<TRIPOS>ATOM
      1 C         140.8569  140.3664  169.3930 C.ar    1  UNL1        0.0769
      2 C         140.0792  141.3434  168.5619 C.ar    1  UNL1        0.0065
      3 C         140.3503  141.4596  167.0912 C.ar    1  UNL1        0.0016
      4 C         141.3991  140.5988  166.4515 C.ar    1  UNL1        0.0191
      5 C         142.1767  139.6218  167.2826 C.ar    1  UNL1        0.0509
      6 C         141.9056  139.5057  168.7534 C.ar    1  UNL1        0.0211
      7 N         143.1418  138.9110  166.3807 N.am    1  UNL1       -0.2803
      8 C         142.9605  139.4487  164.9922 C.2     1  UNL1        0.2507
      9 O         143.7225  139.0188  163.7737 O.2     1  UNL1       -0.2698
     10 C         141.8835  140.4918  165.0360 C.2     1  UNL1        0.0682
     11 C         141.3793  141.2881  163.8691 C.2     1  UNL1        0.0527
     12 H         143.7817  138.2139  166.6524 H       1  UNL1        0.1552
     13 C         140.2916  142.3018  164.0666 C.ar    1  UNL1        0.0136
     14 C         138.8532  141.8842  163.9847 C.ar    1  UNL1        0.0012
     15 C         137.7654  142.8981  164.1823 C.ar    1  UNL1        0.0000
     16 C         138.1160  144.3295  164.4619 C.ar    1  UNL1        0.0000
     17 C         139.5544  144.7471  164.5438 C.ar    1  UNL1        0.0000
     18 C         140.6421  143.7333  164.3462 C.ar    1  UNL1        0.0012
     19 C         140.5858  140.2503  170.8637 C.2     1  UNL1        0.3414
     20 O         139.4963  139.3446  171.3563 O.2     1  UNL1       -0.2449
     21 C         142.1830  142.2342  171.3763 C.3     1  UNL1        0.2560
     22 O         141.4042  141.0398  171.8419 O.3     1  UNL1       -0.4413
     23 N         141.9630  141.0708  162.5045 N.pl3   1  UNL1       -0.3124
     24 H         142.9167  140.8468  162.4070 H       1  UNL1        0.1522
     25 C         141.0935  141.1945  161.2884 C.ar    1  UNL1        0.0495
     26 C         140.2478  140.0359  160.8500 C.ar    1  UNL1        0.0144
     27 C         139.3783  140.1597  159.6340 C.ar    1  UNL1       -0.0017
     28 C         139.3546  141.4422  158.8563 C.ar    1  UNL1       -0.0067
     29 C         140.2004  142.6008  159.2947 C.ar    1  UNL1        0.0511
     30 C         141.0699  142.4770  160.5108 C.ar    1  UNL1        0.0292
     31 N         139.9714  143.7310  158.3355 N.am    1  UNL1       -0.2574
     32 C         140.6165  145.0839  158.3967 C.2     1  UNL1        0.2457
     33 O         141.5900  145.4016  159.4927 O.2     1  UNL1       -0.2730
     34 C         138.9841  143.2708  157.3042 C.3     1  UNL1        0.1029
     35 C         138.6029  141.8563  157.6262 C.3     1  UNL1        0.0495
     36 C         140.2879  146.1189  157.3619 C.3     1  UNL1        0.1591
     37 N         140.9155  146.0450  156.0015 N.3     1  UNL1       -0.2607
     38 C         142.1078  145.1641  155.7725 C.3     1  UNL1        0.1050
     39 C         142.7353  145.0901  154.4121 C.3     1  UNL1        0.1595
     40 O         142.1706  145.8970  153.2807 O.3     1  UNL1       -0.3508
     41 C         140.9782  146.7779  153.5098 C.3     1  UNL1        0.1595
     42 C         140.3507  146.8519  154.8702 C.3     1  UNL1        0.1050
@<TRIPOS>BOND
     1    21    22    1
     2    22    19    1
     3    19    20    2
     4    19     1    1
     5     1     2   ar
     6     2     3   ar
     7     3     4   ar
     8     4     5   ar
     9     5     6   ar
    10     5     7    1
    11     7     8   am
    12     8     9    2
    13     8    10    1
    14    10    11    2
    15    11    23    1
    16    23    25    1
    17    25    26   ar
    18    26    27   ar
    19    27    28   ar
    20    28    29   ar
    21    29    30   ar
    22    29    31    1
    23    31    32   am
    24    32    33    2
    25    32    36    1
    26    36    37    1
    27    37    38    1
    28    38    39    1
    29    39    40    1
    30    40    41    1
    31    41    42    1
    32    31    34    1
    33    34    35    1
    34    11    13    1
    35    13    14   ar
    36    14    15   ar
    37    15    16   ar
    38    16    17   ar
    39    17    18   ar
    40     6     1   ar
    41    30    25   ar
    42    42    37    1
    43    18    13   ar
    44    10     4    1
    45    35    28    1
    46     7    12    1
    47    23    24    1
@<TRIPOS>MOLECULE
*****
 42 47 0 0 0
SMALL
GASTEIGER

@<TRIPOS>ATOM
      1 C         140.2424  142.0476  169.4369 C.ar    1  UNL1        0.0769
      2 C         140.9989  142.9107  168.4713 C.ar    1  UNL1        0.0065
      3 C         141.0715  142.5294  167.0224 C.ar    1  UNL1        0.0016
      4 C         140.3876  141.2850  166.5391 C.ar    1  UNL1        0.0191
      5 C         139.6310  140.4219  167.5048 C.ar    1  UNL1        0.0509
      6 C         139.5584  140.8032  168.9537 C.ar    1  UNL1        0.0211
      7 N         139.0615  139.2624  166.7423 N.am    1  UNL1       -0.2803
      8 C         139.4661  139.4090  165.3054 C.2     1  UNL1        0.2507
      9 O         139.1131  138.4703  164.1898 O.2     1  UNL1       -0.2698
     10 C         140.2857  140.6590  165.1798 C.2     1  UNL1        0.0682
     11 C         140.8961  141.1899  163.9167 C.2     1  UNL1        0.0527
     12 H         138.5176  138.5333  167.1189 H       1  UNL1        0.1552
     13 C         141.6946  142.4593  163.9454 C.ar    1  UNL1        0.0136
     14 C         143.1753  142.4090  164.1798 C.ar    1  UNL1        0.0012
     15 C         143.9737  143.6786  164.2085 C.ar    1  UNL1        0.0000
     16 C         143.2914  144.9985  164.0028 C.ar    1  UNL1        0.0000
     17 C         141.8107  145.0488  163.7685 C.ar    1  UNL1        0.0000
     18 C         141.0123  143.7793  163.7398 C.ar    1  UNL1        0.0012
     19 C         140.1698  142.4289  170.8859 C.2     1  UNL1        0.3414
     20 O         139.0213  143.2528  171.3879 O.2     1  UNL1       -0.2449
     21 C         142.1903  140.8910  171.4354 C.3     1  UNL1        0.2560
     22 O         141.2457  141.9863  171.8327 O.3     1  UNL1       -0.4413
     23 N         140.7082  140.4512  162.6248 N.pl3   1  UNL1       -0.3124
     24 H         139.9715  139.8050  162.5299 H       1  UNL1        0.1522
     25 C         141.6426  140.6971  161.4774 C.ar    1  UNL1        0.0495
     26 C         142.6559  139.6578  161.0993 C.ar    1  UNL1        0.0144
     27 C         143.5903  139.9037  159.9520 C.ar    1  UNL1       -0.0017
     28 C         143.5114  141.1890  159.1827 C.ar    1  UNL1       -0.0067
     29 C         142.4982  142.2284  159.5608 C.ar    1  UNL1        0.0511
     30 C         141.5637  141.9824  160.7082 C.ar    1  UNL1        0.0292
     31 N         142.6548  143.3904  158.6253 N.am    1  UNL1       -0.2574
     32 C         141.8437  144.6521  158.6429 C.2     1  UNL1        0.2457
     33 O         140.7602  144.8329  159.6643 O.2     1  UNL1       -0.2730
     34 C         143.7649  143.0691  157.6690 C.3     1  UNL1        0.1029
     35 C         144.2943  141.7086  158.0135 C.3     1  UNL1        0.0495
     36 C         142.1162  145.7329  157.6392 C.3     1  UNL1        0.1591
     37 N         141.1485  145.9780  156.5196 N.3     1  UNL1       -0.2607
     38 C         139.8411  146.6599  156.7941 C.3     1  UNL1        0.1050
     39 C         138.8733  146.9050  155.6745 C.3     1  UNL1        0.1595
     40 O         139.2131  146.4681  154.2803 O.3     1  UNL1       -0.3508
     41 C         140.5207  145.7861  154.0058 C.3     1  UNL1        0.1595
     42 C         141.4883  145.5411  155.1254 C.3     1  UNL1        0.1050
@<TRIPOS>BOND
     1    21    22    1
     2    22    19    1
     3    19    20    2
     4    19     1    1
     5     1     2   ar
     6     2     3   ar
     7     3     4   ar
     8     4     5   ar
     9     5     6   ar
    10     5     7    1
    11     7     8   am
    12     8     9    2
    13     8    10    1
    14    10    11    2
    15    11    23    1
    16    23    25    1
    17    25    26   ar
    18    26    27   ar
    19    27    28   ar
    20    28    29   ar
    21    29    30   ar
    22    29    31    1
    23    31    32   am
    24    32    33    2
    25    32    36    1
    26    36    37    1
    27    37    38    1
    28    38    39    1
    29    39    40    1
    30    40    41    1
    31    41    42    1
    32    31    34    1
    33    34    35    1
    34    11    13    1
    35    13    14   ar
    36    14    15   ar
    37    15    16   ar
    38    16    17   ar
    39    17    18   ar
    40     6     1   ar
    41    30    25   ar
    42    42    37    1
    43    18    13   ar
    44    10     4    1
    45    35    28    1
    46     7    12    1
    47    23    24    1
@<TRIPOS>MOLECULE
*****
 42 47 0 0 0
SMALL
GASTEIGER

@<TRIPOS>ATOM
      1 C         140.8100  141.3817  169.3138 C.ar    1  UNL1        0.0769
      2 C         140.8704  142.4122  168.2255 C.ar    1  UNL1        0.0065
      3 C         141.7146  142.1701  167.0094 C.ar    1  UNL1        0.0016
      4 C         142.4984  140.8977  166.8817 C.ar    1  UNL1        0.0191
      5 C         142.4380  139.8672  167.9700 C.ar    1  UNL1        0.0509
      6 C         141.5938  140.1092  169.1860 C.ar    1  UNL1        0.0211
      7 N         143.3133  138.7171  167.5685 N.am    1  UNL1       -0.2803
      8 C         143.9146  139.0368  166.2320 C.2     1  UNL1        0.2507
      9 O         144.8546  138.1624  165.4561 O.2     1  UNL1       -0.2698
     10 C         143.4110  140.3845  165.8076 C.2     1  UNL1        0.0682
     11 C         143.7588  141.0943  164.5328 C.2     1  UNL1        0.0527
     12 H         143.4663  137.8965  168.0905 H       1  UNL1        0.1552
     13 C         143.1748  142.4452  164.2431 C.ar    1  UNL1        0.0136
     14 C         143.9611  143.6845  164.5528 C.ar    1  UNL1        0.0012
     15 C         143.3770  145.0354  164.2631 C.ar    1  UNL1        0.0000
     16 C         142.0065  145.1470  163.6636 C.ar    1  UNL1        0.0000
     17 C         141.2202  143.9078  163.3539 C.ar    1  UNL1        0.0000
     18 C         141.8043  142.5569  163.6436 C.ar    1  UNL1        0.0012
     19 C         139.9658  141.6237  170.5298 C.2     1  UNL1        0.3414
     20 O         140.5928  142.1556  171.7844 O.2     1  UNL1       -0.2449
     21 C         138.0122  139.9301  170.2742 C.3     1  UNL1        0.2560
     22 O         138.4946  141.3338  170.4913 O.3     1  UNL1       -0.4413
     23 N         144.6908  140.4533  163.5476 N.pl3   1  UNL1       -0.3124
     24 H         145.6586  140.4332  163.7268 H       1  UNL1        0.1522
     25 C         144.1481  139.8429  162.2895 C.ar    1  UNL1        0.0495
     26 C         143.4556  138.5133  162.3390 C.ar    1  UNL1        0.0144
     27 C         142.9130  137.9029  161.0809 C.ar    1  UNL1       -0.0017
     28 C         143.0628  138.6222  159.7731 C.ar    1  UNL1       -0.0067
     29 C         143.7553  139.9518  159.7236 C.ar    1  UNL1        0.0511
     30 C         144.2979  140.5622  160.9817 C.ar    1  UNL1        0.0292
     31 N         143.7536  140.4225  158.2993 N.am    1  UNL1       -0.2574
     32 C         144.3421  141.7066  157.7944 C.2     1  UNL1        0.2457
     33 O         145.0085  142.6526  158.7488 O.2     1  UNL1       -0.2730
     34 C         143.0600  139.3838  157.4687 C.3     1  UNL1        0.1029
     35 C         142.6331  138.2711  158.3795 C.3     1  UNL1        0.0495
     36 C         144.2642  142.0446  156.3350 C.3     1  UNL1        0.1591
     37 N         145.5178  142.3372  155.5650 N.3     1  UNL1       -0.2607
     38 C         146.8298  141.7755  156.0266 C.3     1  UNL1        0.1050
     39 C         148.0834  142.0681  155.2566 C.3     1  UNL1        0.1595
     40 O         148.0249  142.9223  154.0250 O.3     1  UNL1       -0.3508
     41 C         146.7128  143.4840  153.5634 C.3     1  UNL1        0.1595
     42 C         145.4593  143.1914  154.3334 C.3     1  UNL1        0.1050
@<TRIPOS>BOND
     1    21    22    1
     2    22    19    1
     3    19    20    2
     4    19     1    1
     5     1     2   ar
     6     2     3   ar
     7     3     4   ar
     8     4     5   ar
     9     5     6   ar
    10     5     7    1
    11     7     8   am
    12     8     9    2
    13     8    10    1
    14    10    11    2
    15    11    23    1
    16    23    25    1
    17    25    26   ar
    18    26    27   ar
    19    27    28   ar
    20    28    29   ar
    21    29    30   ar
    22    29    31    1
    23    31    32   am
    24    32    33    2
    25    32    36    1
    26    36    37    1
    27    37    38    1
    28    38    39    1
    29    39    40    1
    30    40    41    1
    31    41    42    1
    32    31    34    1
    33    34    35    1
    34    11    13    1
    35    13    14   ar
    36    14    15   ar
    37    15    16   ar
    38    16    17   ar
    39    17    18   ar
    40     6     1   ar
    41    30    25   ar
    42    42    37    1
    43    18    13   ar
    44    10     4    1
    45    35    28    1
    46     7    12    1
    47    23    24    1
@<TRIPOS>MOLECULE
*****
 42 47 0 0 0
SMALL
GASTEIGER

@<TRIPOS>ATOM
      1 C         139.9019  141.9714  169.5783 C.ar    1  UNL1        0.0769
      2 C         140.4847  142.7906  168.4652 C.ar    1  UNL1        0.0065
      3 C         140.4568  142.2717  167.0581 C.ar    1  UNL1        0.0016
      4 C         139.8462  140.9335  166.7641 C.ar    1  UNL1        0.0191
      5 C         139.2634  140.1143  167.8773 C.ar    1  UNL1        0.0509
      6 C         139.2913  140.6332  169.2844 C.ar    1  UNL1        0.0211
      7 N         138.7327  138.8414  167.2873 N.am    1  UNL1       -0.2803
      8 C         138.9875  138.8739  165.8095 C.2     1  UNL1        0.2507
      9 O         138.6189  137.8017  164.8273 O.2     1  UNL1       -0.2698
     10 C         139.6757  140.1670  165.4861 C.2     1  UNL1        0.0682
     11 C         140.1161  140.6148  164.1240 C.2     1  UNL1        0.0527
     12 H         138.2941  138.1125  167.7830 H       1  UNL1        0.1552
     13 C         140.7958  141.9410  163.9538 C.ar    1  UNL1        0.0136
     14 C         139.9784  143.1929  163.8334 C.ar    1  UNL1        0.0012
     15 C         140.6583  144.5192  163.6632 C.ar    1  UNL1        0.0000
     16 C         142.1556  144.5935  163.6135 C.ar    1  UNL1        0.0000
     17 C         142.9731  143.3416  163.7340 C.ar    1  UNL1        0.0000
     18 C         142.2932  142.0154  163.9041 C.ar    1  UNL1        0.0012
     19 C         139.9297  142.4903  170.9855 C.2     1  UNL1        0.3414
     20 O         138.9770  143.5699  171.4057 O.2     1  UNL1       -0.2449
     21 C         142.1614  141.2585  171.4880 C.3     1  UNL1        0.2560
     22 O         140.9103  141.9295  171.9724 O.3     1  UNL1       -0.4413
     23 N         139.8767  139.7364  162.9319 N.pl3   1  UNL1       -0.3124
     24 H         139.7335  138.7700  163.0534 H       1  UNL1        0.1522
     25 C         139.8554  140.3304  161.5547 C.ar    1  UNL1        0.0495
     26 C         138.7337  141.2389  161.1469 C.ar    1  UNL1        0.0144
     27 C         138.7125  141.8330  159.7698 C.ar    1  UNL1       -0.0017
     28 C         139.8130  141.5185  158.8002 C.ar    1  UNL1       -0.0067
     29 C         140.9347  140.6100  159.2080 C.ar    1  UNL1        0.0511
     30 C         140.9560  140.0160  160.5852 C.ar    1  UNL1        0.0292
     31 N         141.8740  140.4828  158.0454 N.am    1  UNL1       -0.2574
     32 C         143.1335  139.6685  158.0145 C.2     1  UNL1        0.2457
     33 O         143.5501  138.8854  159.2241 O.2     1  UNL1       -0.2730
     34 C         141.3328  141.3126  156.9192 C.3     1  UNL1        0.1029
     35 C         140.0590  141.9528  157.3857 C.3     1  UNL1        0.0495
     36 C         143.9763  139.6375  156.7741 C.3     1  UNL1        0.1591
     37 N         145.1024  140.6143  156.6078 N.3     1  UNL1       -0.2607
     38 C         145.3302  141.6789  157.6396 C.3     1  UNL1        0.1050
     39 C         146.4564  142.6557  157.4734 C.3     1  UNL1        0.1595
     40 O         147.3548  142.5679  156.2753 O.3     1  UNL1       -0.3508
     41 C         147.1269  141.5032  155.2435 C.3     1  UNL1        0.1595
     42 C         146.0007  140.5264  155.4098 C.3     1  UNL1        0.1050
@<TRIPOS>BOND
     1    21    22    1
     2    22    19    1
     3    19    20    2
     4    19     1    1
     5     1     2   ar
     6     2     3   ar
     7     3     4   ar
     8     4     5   ar
     9     5     6   ar
    10     5     7    1
    11     7     8   am
    12     8     9    2
    13     8    10    1
    14    10    11    2
    15    11    23    1
    16    23    25    1
    17    25    26   ar
    18    26    27   ar
    19    27    28   ar
    20    28    29   ar
    21    29    30   ar
    22    29    31    1
    23    31    32   am
    24    32    33    2
    25    32    36    1
    26    36    37    1
    27    37    38    1
    28    38    39    1
    29    39    40    1
    30    40    41    1
    31    41    42    1
    32    31    34    1
    33    34    35    1
    34    11    13    1
    35    13    14   ar
    36    14    15   ar
    37    15    16   ar
    38    16    17   ar
    39    17    18   ar
    40     6     1   ar
    41    30    25   ar
    42    42    37    1
    43    18    13   ar
    44    10     4    1
    45    35    28    1
    46     7    12    1
    47    23    24    1
@<TRIPOS>MOLECULE
*****
 42 47 0 0 0
SMALL
GASTEIGER

@<TRIPOS>ATOM
      1 C         141.1099  141.8507  169.2671 C.ar    1  UNL1        0.0769
      2 C         142.1701  141.8679  168.2061 C.ar    1  UNL1        0.0065
      3 C         142.0239  141.0081  166.9857 C.ar    1  UNL1        0.0016
      4 C         140.8176  140.1310  166.8263 C.ar    1  UNL1        0.0191
      5 C         139.7575  140.1137  167.8873 C.ar    1  UNL1        0.0509
      6 C         139.9036  140.9736  169.1077 C.ar    1  UNL1        0.0211
      7 N         138.6871  139.1546  167.4576 N.am    1  UNL1       -0.2803
      8 C         139.0858  138.5791  166.1310 C.2     1  UNL1        0.2507
      9 O         138.3050  137.5763  165.3344 O.2     1  UNL1       -0.2698
     10 C         140.4025  139.1826  165.7409 C.2     1  UNL1        0.0682
     11 C         141.1695  138.8891  164.4857 C.2     1  UNL1        0.0527
     12 H         137.8670  138.9404  167.9584 H       1  UNL1        0.1552
     13 C         142.4799  139.5730  164.2302 C.ar    1  UNL1        0.0136
     14 C         142.5093  140.9030  163.5372 C.ar    1  UNL1        0.0012
     15 C         143.8197  141.5868  163.2817 C.ar    1  UNL1        0.0000
     16 C         145.1007  140.9405  163.7192 C.ar    1  UNL1        0.0000
     17 C         145.0714  139.6105  164.4121 C.ar    1  UNL1        0.0000
     18 C         143.7609  138.9268  164.6676 C.ar    1  UNL1        0.0012
     19 C         141.2561  142.7105  170.4874 C.2     1  UNL1        0.3414
     20 O         141.3915  142.0763  171.8400 O.2     1  UNL1       -0.2449
     21 C         139.9744  144.9657  170.3423 C.3     1  UNL1        0.2560
     22 O         141.2669  144.2046  170.3553 O.3     1  UNL1       -0.4413
     23 N         140.6262  137.9118  163.4859 N.pl3   1  UNL1       -0.3124
     24 H         140.6006  136.9513  163.7002 H       1  UNL1        0.1522
     25 C         140.1217  138.3980  162.1595 C.ar    1  UNL1        0.0495
     26 C         138.8097  139.1201  162.0749 C.ar    1  UNL1        0.0144
     27 C         138.3053  139.6063  160.7486 C.ar    1  UNL1       -0.0017
     28 C         139.1129  139.3703  159.5068 C.ar    1  UNL1       -0.0067
     29 C         140.4249  138.6482  159.5914 C.ar    1  UNL1        0.0511
     30 C         140.9293  138.1620  160.9177 C.ar    1  UNL1        0.0292
     31 N         140.9968  138.5624  158.2073 N.am    1  UNL1       -0.2574
     32 C         142.2987  137.9202  157.8295 C.2     1  UNL1        0.2457
     33 O         143.1566  137.2869  158.8845 O.2     1  UNL1       -0.2730
     34 C         140.0382  139.2315  157.2674 C.3     1  UNL1        0.1029
     35 C         138.8739  139.7308  158.0705 C.3     1  UNL1        0.0495
     36 C         142.7427  137.9113  156.3968 C.3     1  UNL1        0.1591
     37 N         142.2397  136.8513  155.4622 N.3     1  UNL1       -0.2607
     38 C         142.0589  135.4449  155.9512 C.3     1  UNL1        0.1050
     39 C         141.5559  134.3848  155.0167 C.3     1  UNL1        0.1595
     40 O         141.2338  134.7312  153.5932 O.3     1  UNL1       -0.3508
     41 C         141.4147  136.1378  153.1043 C.3     1  UNL1        0.1595
     42 C         141.9177  137.1978  154.0388 C.3     1  UNL1        0.1050
@<TRIPOS>BOND
     1    21    22    1
     2    22    19    1
     3    19    20    2
     4    19     1    1
     5     1     2   ar
     6     2     3   ar
     7     3     4   ar
     8     4     5   ar
     9     5     6   ar
    10     5     7    1
    11     7     8   am
    12     8     9    2
    13     8    10    1
    14    10    11    2
    15    11    23    1
    16    23    25    1
    17    25    26   ar
    18    26    27   ar
    19    27    28   ar
    20    28    29   ar
    21    29    30   ar
    22    29    31    1
    23    31    32   am
    24    32    33    2
    25    32    36    1
    26    36    37    1
    27    37    38    1
    28    38    39    1
    29    39    40    1
    30    40    41    1
    31    41    42    1
    32    31    34    1
    33    34    35    1
    34    11    13    1
    35    13    14   ar
    36    14    15   ar
    37    15    16   ar
    38    16    17   ar
    39    17    18   ar
    40     6     1   ar
    41    30    25   ar
    42    42    37    1
    43    18    13   ar
    44    10     4    1
    45    35    28    1
    46     7    12    1
    47    23    24    1
@<TRIPOS>MOLECULE
*****
 42 47 0 0 0
SMALL
GASTEIGER

@<TRIPOS>ATOM
      1 C         140.7980  142.0655  168.6337 C.ar    1  UNL1        0.0769
      2 C         141.9262  142.1552  167.6493 C.ar    1  UNL1        0.0065
      3 C         141.9579  141.2423  166.4595 C.ar    1  UNL1        0.0016
      4 C         140.8612  140.2398  166.2540 C.ar    1  UNL1        0.0191
      5 C         139.7330  140.1501  167.2384 C.ar    1  UNL1        0.0509
      6 C         139.7014  141.0629  168.4282 C.ar    1  UNL1        0.0211
      7 N         138.7995  139.0705  166.7764 N.am    1  UNL1       -0.2803
      8 C         139.3509  138.4931  165.5066 C.2     1  UNL1        0.2507
      9 O         138.7360  137.3872  164.7010 O.2     1  UNL1       -0.2698
     10 C         140.6251  139.2157  165.1837 C.2     1  UNL1        0.0682
     11 C         141.5081  138.9594  163.9986 C.2     1  UNL1        0.0527
     12 H         137.9705  138.7903  167.2275 H       1  UNL1        0.1552
     13 C         142.7580  139.7660  163.8061 C.ar    1  UNL1        0.0136
     14 C         142.7023  141.0710  163.0687 C.ar    1  UNL1        0.0012
     15 C         143.9524  141.8776  162.8762 C.ar    1  UNL1        0.0000
     16 C         145.2580  141.3791  163.4211 C.ar    1  UNL1        0.0000
     17 C         145.3136  140.0741  164.1584 C.ar    1  UNL1        0.0000
     18 C         144.0637  139.2675  164.3509 C.ar    1  UNL1        0.0012
     19 C         140.7664  142.9784  169.8235 C.2     1  UNL1        0.3414
     20 O         140.1409  144.3369  169.7101 O.2     1  UNL1       -0.2449
     21 C         141.9101  141.1438  171.2645 C.3     1  UNL1        0.2560
     22 O         141.3602  142.5326  171.1268 O.3     1  UNL1       -0.4413
     23 N         141.1413  137.8963  163.0060 N.pl3   1  UNL1       -0.3124
     24 H         140.7623  137.0424  163.3166 H       1  UNL1        0.1522
     25 C         141.3518  138.1342  161.5400 C.ar    1  UNL1        0.0495
     26 C         142.6090  137.6569  160.8756 C.ar    1  UNL1        0.0144
     27 C         142.8195  137.8948  159.4097 C.ar    1  UNL1       -0.0017
     28 C         141.7728  138.6101  158.6080 C.ar    1  UNL1       -0.0067
     29 C         140.5155  139.0875  159.2724 C.ar    1  UNL1        0.0511
     30 C         140.3050  138.8495  160.7384 C.ar    1  UNL1        0.0292
     31 N         139.6678  139.7584  158.2326 N.am    1  UNL1       -0.2574
     32 C         138.3228  140.3825  158.4599 C.2     1  UNL1        0.2457
     33 O         137.7116  140.3690  159.8296 O.2     1  UNL1       -0.2730
     34 C         140.4012  139.6957  156.9256 C.3     1  UNL1        0.1029
     35 C         141.7021  138.9860  157.1576 C.3     1  UNL1        0.0495
     36 C         137.5892  141.0201  157.3175 C.3     1  UNL1        0.1591
     37 N         137.9797  142.3895  156.8462 N.3     1  UNL1       -0.2607
     38 C         139.1616  143.0836  157.4555 C.3     1  UNL1        0.1050
     39 C         139.5522  144.4531  156.9843 C.3     1  UNL1        0.1595
     40 O         138.7608  145.1284  155.9037 O.3     1  UNL1       -0.3508
     41 C         137.5789  144.4343  155.2943 C.3     1  UNL1        0.1595
     42 C         137.1883  143.0649  155.7656 C.3     1  UNL1        0.1050
@<TRIPOS>BOND
     1    21    22    1
     2    22    19    1
     3    19    20    2
     4    19     1    1
     5     1     2   ar
     6     2     3   ar
     7     3     4   ar
     8     4     5   ar
     9     5     6   ar
    10     5     7    1
    11     7     8   am
    12     8     9    2
    13     8    10    1
    14    10    11    2
    15    11    23    1
    16    23    25    1
    17    25    26   ar
    18    26    27   ar
    19    27    28   ar
    20    28    29   ar
    21    29    30   ar
    22    29    31    1
    23    31    32   am
    24    32    33    2
    25    32    36    1
    26    36    37    1
    27    37    38    1
    28    38    39    1
    29    39    40    1
    30    40    41    1
    31    41    42    1
    32    31    34    1
    33    34    35    1
    34    11    13    1
    35    13    14   ar
    36    14    15   ar
    37    15    16   ar
    38    16    17   ar
    39    17    18   ar
    40     6     1   ar
    41    30    25   ar
    42    42    37    1
    43    18    13   ar
    44    10     4    1
    45    35    28    1
    46     7    12    1
    47    23    24    1
@<TRIPOS>MOLECULE
*****
 42 47 0 0 0
SMALL
GASTEIGER

@<TRIPOS>ATOM
      1 C         140.1397  146.0511  157.1603 C.ar    1  UNL1        0.0769
      2 C         139.8670  145.9583  158.6323 C.ar    1  UNL1        0.0065
      3 C         140.7417  145.1078  159.5050 C.ar    1  UNL1        0.0016
      4 C         141.8891  144.3500  158.9056 C.ar    1  UNL1        0.0191
      5 C         142.1618  144.4429  157.4335 C.ar    1  UNL1        0.0509
      6 C         141.2871  145.2934  156.5609 C.ar    1  UNL1        0.0211
      7 N         143.3564  143.5884  157.1286 N.am    1  UNL1       -0.2803
      8 C         143.8220  142.9676  158.4122 C.2     1  UNL1        0.2507
      9 O         144.9895  142.0390  158.5700 O.2     1  UNL1       -0.2698
     10 C         142.9151  143.4383  159.5104 C.2     1  UNL1        0.0682
     11 C         143.0165  143.0631  160.9592 C.2     1  UNL1        0.0527
     12 H         143.7634  143.4580  156.2417 H       1  UNL1        0.1552
     13 C         142.0327  143.6154  161.9476 C.ar    1  UNL1        0.0136
     14 C         140.6975  142.9555  162.1256 C.ar    1  UNL1        0.0012
     15 C         139.7137  143.5079  163.1141 C.ar    1  UNL1        0.0000
     16 C         140.0652  144.7202  163.9247 C.ar    1  UNL1        0.0000
     17 C         141.4004  145.3800  163.7467 C.ar    1  UNL1        0.0000
     18 C         142.3842  144.8276  162.7582 C.ar    1  UNL1        0.0012
     19 C         139.2650  146.9017  156.2876 C.2     1  UNL1        0.3414
     20 O         138.8890  148.2863  156.7250 O.2     1  UNL1       -0.2449
     21 C         137.7318  145.2817  154.9554 C.3     1  UNL1        0.2560
     22 O         138.7664  146.3676  154.9776 O.3     1  UNL1       -0.4413
     23 N         144.1018  142.1355  161.4196 N.pl3   1  UNL1       -0.3124
     24 H         145.0179  142.2402  161.0746 H       1  UNL1        0.1522
     25 C         143.7911  141.0486  162.4055 C.ar    1  UNL1        0.0495
     26 C         143.6204  139.6348  161.9342 C.ar    1  UNL1        0.0144
     27 C         143.3098  138.5479  162.9202 C.ar    1  UNL1       -0.0017
     28 C         143.1699  138.8747  164.3774 C.ar    1  UNL1       -0.0067
     29 C         143.3407  140.2884  164.8487 C.ar    1  UNL1        0.0511
     30 C         143.6513  141.3754  163.8628 C.ar    1  UNL1        0.0292
     31 N         143.1461  140.3079  166.3359 N.am    1  UNL1       -0.2574
     32 C         143.2282  141.5169  167.2201 C.2     1  UNL1        0.2457
     33 O         143.5291  142.8611  166.6265 O.2     1  UNL1       -0.2730
     34 C         142.8551  138.9062  166.7837 C.3     1  UNL1        0.1029
     35 C         142.8698  138.0204  165.5733 C.3     1  UNL1        0.0495
     36 C         143.0093  141.3816  168.6978 C.3     1  UNL1        0.1591
     37 N         141.6223  141.4703  169.2618 N.3     1  UNL1       -0.2607
     38 C         140.6520  140.3468  169.0469 C.3     1  UNL1        0.1050
     39 C         139.2648  140.4355  169.6109 C.3     1  UNL1        0.1595
     40 O         138.8480  141.6478  170.3898 O.3     1  UNL1       -0.3508
     41 C         139.8184  142.7713  170.6047 C.3     1  UNL1        0.1595
     42 C         141.2055  142.6826  170.0407 C.3     1  UNL1        0.1050
@<TRIPOS>BOND
     1    21    22    1
     2    22    19    1
     3    19    20    2
     4    19     1    1
     5     1     2   ar
     6     2     3   ar
     7     3     4   ar
     8     4     5   ar
     9     5     6   ar
    10     5     7    1
    11     7     8   am
    12     8     9    2
    13     8    10    1
    14    10    11    2
    15    11    23    1
    16    23    25    1
    17    25    26   ar
    18    26    27   ar
    19    27    28   ar
    20    28    29   ar
    21    29    30   ar
    22    29    31    1
    23    31    32   am
    24    32    33    2
    25    32    36    1
    26    36    37    1
    27    37    38    1
    28    38    39    1
    29    39    40    1
    30    40    41    1
    31    41    42    1
    32    31    34    1
    33    34    35    1
    34    11    13    1
    35    13    14   ar
    36    14    15   ar
    37    15    16   ar
    38    16    17   ar
    39    17    18   ar
    40     6     1   ar
    41    30    25   ar
    42    42    37    1
    43    18    13   ar
    44    10     4    1
    45    35    28    1
    46     7    12    1
    47    23    24    1
@<TRIPOS>MOLECULE
*****
 42 47 0 0 0
SMALL
GASTEIGER

@<TRIPOS>ATOM
      1 C         139.1928  140.2070  165.8294 C.ar    1  UNL1        0.0769
      2 C         140.6643  140.2601  165.5435 C.ar    1  UNL1        0.0065
      3 C         141.2052  141.2758  164.5813 C.ar    1  UNL1        0.0016
      4 C         140.2746  142.2383  163.9050 C.ar    1  UNL1        0.0191
      5 C         138.8031  142.1852  164.1909 C.ar    1  UNL1        0.0509
      6 C         138.2622  141.1695  165.1530 C.ar    1  UNL1        0.0211
      7 N         138.1343  143.2550  163.3795 N.am    1  UNL1       -0.2803
      8 C         139.1925  143.9693  162.5922 C.2     1  UNL1        0.2507
      9 O         138.9675  145.1115  161.6461 O.2     1  UNL1       -0.2698
     10 C         140.5153  143.3410  162.9170 C.2     1  UNL1        0.0682
     11 C         141.8453  143.7444  162.3528 C.2     1  UNL1        0.0527
     12 H         137.1701  143.4535  163.3660 H       1  UNL1        0.1552
     13 C         143.0894  143.0198  162.7733 C.ar    1  UNL1        0.0136
     14 C         143.5451  141.8090  162.0141 C.ar    1  UNL1        0.0012
     15 C         144.7893  141.0843  162.4348 C.ar    1  UNL1        0.0000
     16 C         145.5779  141.5705  163.6146 C.ar    1  UNL1        0.0000
     17 C         145.1222  142.7812  164.3738 C.ar    1  UNL1        0.0000
     18 C         143.8780  143.5059  163.9532 C.ar    1  UNL1        0.0012
     19 C         138.6518  139.1913  166.7916 C.2     1  UNL1        0.3414
     20 O         138.0642  137.9103  166.2782 O.2     1  UNL1       -0.2449
     21 C         139.6724  140.4551  168.8192 C.3     1  UNL1        0.2560
     22 O         138.6986  139.4566  168.2671 O.3     1  UNL1       -0.4413
     23 N         141.9312  144.8727  161.3680 N.pl3   1  UNL1       -0.3124
     24 H         142.1032  145.7893  161.6834 H       1  UNL1        0.1522
     25 C         141.7549  144.6043  159.9028 C.ar    1  UNL1        0.0495
     26 C         140.8415  145.4697  159.0863 C.ar    1  UNL1        0.0144
     27 C         140.6653  145.2014  157.6211 C.ar    1  UNL1       -0.0017
     28 C         141.4024  144.0675  156.9723 C.ar    1  UNL1       -0.0067
     29 C         142.3158  143.2021  157.7888 C.ar    1  UNL1        0.0511
     30 C         142.4921  143.4705  159.2540 C.ar    1  UNL1        0.0292
     31 N         142.9061  142.1647  156.8802 N.am    1  UNL1       -0.2574
     32 C         143.8750  141.0914  157.2796 C.2     1  UNL1        0.2457
     33 O         144.3371  140.9899  158.7030 O.2     1  UNL1       -0.2730
     34 C         142.3575  142.3890  155.5023 C.3     1  UNL1        0.1029
     35 C         141.4282  143.5651  155.5592 C.3     1  UNL1        0.0495
     36 C         144.3817  140.1196  156.2555 C.3     1  UNL1        0.1591
     37 N         143.9421  138.6861  156.2997 N.3     1  UNL1       -0.2607
     38 C         144.5436  137.6878  155.3556 C.3     1  UNL1        0.1050
     39 C         144.1041  136.2542  155.3998 C.3     1  UNL1        0.1595
     40 O         143.0631  135.8192  156.3882 O.3     1  UNL1       -0.3508
     41 C         142.4616  136.8176  157.3324 C.3     1  UNL1        0.1595
     42 C         142.9011  138.2510  157.2881 C.3     1  UNL1        0.1050
@<TRIPOS>BOND
     1    21    22    1
     2    22    19    1
     3    19    20    2
     4    19     1    1
     5     1     2   ar
     6     2     3   ar
     7     3     4   ar
     8     4     5   ar
     9     5     6   ar
    10     5     7    1
    11     7     8   am
    12     8     9    2
    13     8    10    1
    14    10    11    2
    15    11    23    1
    16    23    25    1
    17    25    26   ar
    18    26    27   ar
    19    27    28   ar
    20    28    29   ar
    21    29    30   ar
    22    29    31    1
    23    31    32   am
    24    32    33    2
    25    32    36    1
    26    36    37    1
    27    37    38    1
    28    38    39    1
    29    39    40    1
    30    40    41    1
    31    41    42    1
    32    31    34    1
    33    34    35    1
    34    11    13    1
    35    13    14   ar
    36    14    15   ar
    37    15    16   ar
    38    16    17   ar
    39    17    18   ar
    40     6     1   ar
    41    30    25   ar
    42    42    37    1
    43    18    13   ar
    44    10     4    1
    45    35    28    1
    46     7    12    1
    47    23    24    1
