@<TRIPOS>MOLECULE
*****
 32 35 0 0 0
SMALL
GASTEIGER

@<TRIPOS>ATOM
      1 C         141.4399  140.5573  167.2421 C.ar    1  UNL1        0.1068
      2 C         141.4037  142.0296  167.5270 C.ar    1  UNL1        0.0867
      3 C         140.6223  142.9472  166.6341 C.ar    1  UNL1        0.0377
      4 C         139.8771  142.3927  165.4564 C.ar    1  UNL1        0.1178
      5 N         139.9133  140.9205  165.1715 N.ar    1  UNL1       -0.2779
      6 C         140.6947  140.0028  166.0644 C.ar    1  UNL1        0.1582
      7 N         140.5468  138.6063  165.5371 N.ar    1  UNL1       -0.2258
      8 C         139.6740  138.6609  164.3184 C.ar    1  UNL1        0.0990
      9 C         139.1853  137.5931  163.3852 C.ar    1  UNL1        0.0206
     10 C         138.3050  137.9555  162.2261 C.ar    1  UNL1        0.0016
     11 C         137.9134  139.3858  162.0001 C.ar    1  UNL1        0.0016
     12 C         138.4022  140.4536  162.9333 C.ar    1  UNL1        0.0191
     13 C         139.2825  140.0912  164.0924 C.ar    1  UNL1        0.0841
     14 C         142.1489  142.5841  168.7048 C.3     1  UNL1        0.4194
     15 F         142.8942  143.1387  169.8826 F       1  UNL1       -0.1658
     16 F         143.3946  142.6746  167.8740 F       1  UNL1       -0.1658
     17 F         140.9033  142.4936  169.5356 F       1  UNL1       -0.1658
     18 N         143.0027  138.7218  169.0279 N.1     1  UNL1       -0.1907
     19 C         142.2213  139.6396  168.1350 C.1     1  UNL1        0.1034
     20 N         139.0957  143.3105  164.5634 N.pl3   1  UNL1       -0.2990
     21 H         138.1614  143.5315  164.7813 H       1  UNL1        0.1536
     22 C         139.7379  143.8914  163.3387 C.ar    1  UNL1        0.0495
     23 C         139.2262  145.1783  162.7623 C.ar    1  UNL1        0.0178
     24 C         139.8683  145.7593  161.5376 C.ar    1  UNL1        0.0385
     25 C         141.0222  145.0535  160.8891 C.ar    1  UNL1        0.1469
     26 C         141.5339  143.7667  161.4655 C.ar    1  UNL1        0.0385
     27 C         140.8917  143.1857  162.6903 C.ar    1  UNL1        0.0178
     28 O         141.6643  145.6345  159.6644 O.3     1  UNL1       -0.4045
     29 C         141.3601  145.0586  158.3131 C.3     1  UNL1        0.5753
     30 F         141.0558  144.4828  156.9618 F       1  UNL1       -0.1328
     31 F         140.0785  145.8369  158.2700 F       1  UNL1       -0.1328
     32 F         142.6417  144.2804  158.3562 F       1  UNL1       -0.1328
@<TRIPOS>BOND
     1    18    19    3
     2    19     1    1
     3     1     2   ar
     4     2    14    1
     5    14    15    1
     6    14    16    1
     7    14    17    1
     8     2     3   ar
     9     3     4   ar
    10     4    20    1
    11    20    22    1
    12    22    23   ar
    13    23    24   ar
    14    24    25   ar
    15    25    28    1
    16    28    29    1
    17    29    30    1
    18    29    31    1
    19    29    32    1
    20    25    26   ar
    21    26    27   ar
    22     4     5   ar
    23     5     6   ar
    24     6     7   ar
    25     7     8   ar
    26     8     9   ar
    27     9    10   ar
    28    10    11   ar
    29    11    12   ar
    30    12    13   ar
    31     6     1   ar
    32    13     8   ar
    33    27    22   ar
    34    13     5   ar
    35    20    21    1
@<TRIPOS>MOLECULE
*****
 32 35 0 0 0
SMALL
GASTEIGER

@<TRIPOS>ATOM
      1 C         141.2043  140.9163  168.4124 C.ar    1  UNL1        0.1068
      2 C         142.3244  141.9137  168.3930 C.ar    1  UNL1        0.0867
      3 C         143.0417  142.2110  167.1096 C.ar    1  UNL1        0.0377
      4 C         142.6387  141.5110  165.8456 C.ar    1  UNL1        0.1178
      5 N         141.5185  140.5136  165.8650 N.ar    1  UNL1       -0.2779
      6 C         140.8013  140.2163  167.1484 C.ar    1  UNL1        0.1582
      7 N         139.7433  139.1924  166.8616 N.ar    1  UNL1       -0.2258
      8 C         139.8067  138.8569  165.4010 C.ar    1  UNL1        0.0990
      9 C         139.0071  137.9134  164.5523 C.ar    1  UNL1        0.0206
     10 C         139.3047  137.7864  163.0876 C.ar    1  UNL1        0.0016
     11 C         140.4019  138.6030  162.4717 C.ar    1  UNL1        0.0016
     12 C         141.2014  139.5466  163.3204 C.ar    1  UNL1        0.0191
     13 C         140.9039  139.6735  164.7850 C.ar    1  UNL1        0.0841
     14 C         142.7274  142.6137  169.6570 C.3     1  UNL1        0.4194
     15 F         143.1303  143.3137  170.9209 F       1  UNL1       -0.1658
     16 F         143.8590  141.6449  169.8328 F       1  UNL1       -0.1658
     17 F         141.5958  143.5825  169.4812 F       1  UNL1       -0.1658
     18 N         139.7696  140.3216  170.9792 N.1     1  UNL1       -0.1907
     19 C         140.4870  140.6190  169.6958 C.1     1  UNL1        0.1034
     20 N         143.3561  141.8084  164.5621 N.pl3   1  UNL1       -0.2990
     21 H         144.2281  141.3906  164.3774 H       1  UNL1        0.1536
     22 C         142.7446  142.7424  163.5603 C.ar    1  UNL1        0.0495
     23 C         141.6751  143.7039  163.9866 C.ar    1  UNL1        0.0178
     24 C         141.0635  144.6379  162.9849 C.ar    1  UNL1        0.0385
     25 C         141.5215  144.6104  161.5567 C.ar    1  UNL1        0.1469
     26 C         142.5909  143.6490  161.1304 C.ar    1  UNL1        0.0385
     27 C         143.2025  142.7150  162.1322 C.ar    1  UNL1        0.0178
     28 O         140.9100  145.5445  160.5549 O.3     1  UNL1       -0.4045
     29 C         140.3932  145.0123  159.2511 C.3     1  UNL1        0.5753
     30 F         139.8765  144.4801  157.9474 F       1  UNL1       -0.1328
     31 F         141.3045  145.9446  158.5094 F       1  UNL1       -0.1328
     32 F         139.4819  144.0799  159.9929 F       1  UNL1       -0.1328
@<TRIPOS>BOND
     1    18    19    3
     2    19     1    1
     3     1     2   ar
     4     2    14    1
     5    14    15    1
     6    14    16    1
     7    14    17    1
     8     2     3   ar
     9     3     4   ar
    10     4    20    1
    11    20    22    1
    12    22    23   ar
    13    23    24   ar
    14    24    25   ar
    15    25    28    1
    16    28    29    1
    17    29    30    1
    18    29    31    1
    19    29    32    1
    20    25    26   ar
    21    26    27   ar
    22     4     5   ar
    23     5     6   ar
    24     6     7   ar
    25     7     8   ar
    26     8     9   ar
    27     9    10   ar
    28    10    11   ar
    29    11    12   ar
    30    12    13   ar
    31     6     1   ar
    32    13     8   ar
    33    27    22   ar
    34    13     5   ar
    35    20    21    1
@<TRIPOS>MOLECULE
*****
 32 35 0 0 0
SMALL
GASTEIGER

@<TRIPOS>ATOM
      1 C         139.0704  139.1622  166.4986 C.ar    1  UNL1        0.1068
      2 C         139.4611  139.2796  165.0551 C.ar    1  UNL1        0.0867
      3 C         140.6029  140.1672  164.6570 C.ar    1  UNL1        0.0377
      4 C         141.3539  140.9375  165.7023 C.ar    1  UNL1        0.1178
      5 N         140.9631  140.8201  167.1458 N.ar    1  UNL1       -0.2779
      6 C         139.8214  139.9325  167.5439 C.ar    1  UNL1        0.1582
      7 N         139.6664  140.0168  169.0335 N.ar    1  UNL1       -0.2258
      8 C         140.7123  140.9565  169.5560 C.ar    1  UNL1        0.0990
      9 C         141.0385  141.4241  170.9433 C.ar    1  UNL1        0.0206
     10 C         142.1661  142.3883  171.1640 C.ar    1  UNL1        0.0016
     11 C         142.9676  142.8849  169.9973 C.ar    1  UNL1        0.0016
     12 C         142.6414  142.4172  168.6100 C.ar    1  UNL1        0.0191
     13 C         141.5138  141.4530  168.3893 C.ar    1  UNL1        0.0841
     14 C         138.7101  138.5093  164.0098 C.3     1  UNL1        0.4194
     15 F         137.9591  137.7390  162.9645 F       1  UNL1       -0.1658
     16 F         137.8203  139.6940  163.7761 F       1  UNL1       -0.1658
     17 F         139.6000  137.3245  164.2435 F       1  UNL1       -0.1658
     18 N         136.7868  137.3871  167.2947 N.1     1  UNL1       -0.1907
     19 C         137.9286  138.2746  166.8967 C.1     1  UNL1        0.1034
     20 N         142.4957  141.8251  165.3042 N.pl3   1  UNL1       -0.2990
     21 H         143.3114  141.8546  165.8546 H       1  UNL1        0.1536
     22 C         142.3945  142.6678  164.0673 C.ar    1  UNL1        0.0495
     23 C         143.0817  142.2345  162.8064 C.ar    1  UNL1        0.0178
     24 C         142.9806  143.0771  161.5696 C.ar    1  UNL1        0.0385
     25 C         142.1923  144.3530  161.5937 C.ar    1  UNL1        0.1469
     26 C         141.5051  144.7863  162.8546 C.ar    1  UNL1        0.0385
     27 C         141.6063  143.9437  164.0914 C.ar    1  UNL1        0.0178
     28 O         142.0912  145.1956  160.3569 O.3     1  UNL1       -0.4045
     29 C         140.9527  144.9919  159.4015 C.3     1  UNL1        0.5753
     30 F         139.8144  144.7882  158.4462 F       1  UNL1       -0.1328
     31 F         140.1182  145.9570  160.1903 F       1  UNL1       -0.1328
     32 F         141.7873  144.0269  158.6128 F       1  UNL1       -0.1328
@<TRIPOS>BOND
     1    18    19    3
     2    19     1    1
     3     1     2   ar
     4     2    14    1
     5    14    15    1
     6    14    16    1
     7    14    17    1
     8     2     3   ar
     9     3     4   ar
    10     4    20    1
    11    20    22    1
    12    22    23   ar
    13    23    24   ar
    14    24    25   ar
    15    25    28    1
    16    28    29    1
    17    29    30    1
    18    29    31    1
    19    29    32    1
    20    25    26   ar
    21    26    27   ar
    22     4     5   ar
    23     5     6   ar
    24     6     7   ar
    25     7     8   ar
    26     8     9   ar
    27     9    10   ar
    28    10    11   ar
    29    11    12   ar
    30    12    13   ar
    31     6     1   ar
    32    13     8   ar
    33    27    22   ar
    34    13     5   ar
    35    20    21    1
@<TRIPOS>MOLECULE
*****
 32 35 0 0 0
SMALL
GASTEIGER

@<TRIPOS>ATOM
      1 C         142.2671  140.0709  161.3858 C.ar    1  UNL1        0.1068
      2 C         142.5388  138.7932  162.1230 C.ar    1  UNL1        0.0867
      3 C         141.7328  138.4427  163.3385 C.ar    1  UNL1        0.0377
      4 C         140.6550  139.3699  163.8168 C.ar    1  UNL1        0.1178
      5 N         140.3833  140.6476  163.0796 N.ar    1  UNL1       -0.2779
      6 C         141.1893  140.9981  161.8641 C.ar    1  UNL1        0.1582
      7 N         140.6973  142.3172  161.3463 N.ar    1  UNL1       -0.2258
      8 C         139.5873  142.7818  162.2418 C.ar    1  UNL1        0.0990
      9 C         138.7282  144.0112  162.2201 C.ar    1  UNL1        0.0206
     10 C         137.6749  144.2087  163.2697 C.ar    1  UNL1        0.0016
     11 C         137.4808  143.1768  164.3409 C.ar    1  UNL1        0.0016
     12 C         138.3399  141.9475  164.3626 C.ar    1  UNL1        0.0191
     13 C         139.3932  141.7500  163.3130 C.ar    1  UNL1        0.0841
     14 C         143.6166  137.8660  161.6447 C.3     1  UNL1        0.4194
     15 F         144.6944  136.9388  161.1665 F       1  UNL1       -0.1658
     16 F         142.6420  137.2164  160.7077 F       1  UNL1       -0.1658
     17 F         144.5913  138.5156  162.5818 F       1  UNL1       -0.1658
     18 N         143.8792  140.7719  158.9548 N.1     1  UNL1       -0.1907
     19 C         143.0731  140.4215  160.1703 C.1     1  UNL1        0.1034
     20 N         139.8490  139.0193  165.0323 N.pl3   1  UNL1       -0.2990
     21 H         139.1608  138.3171  164.9810 H       1  UNL1        0.1536
     22 C         140.0915  139.7385  166.3261 C.ar    1  UNL1        0.0495
     23 C         141.2816  140.6400  166.4713 C.ar    1  UNL1        0.0178
     24 C         141.5242  141.3593  167.7650 C.ar    1  UNL1        0.0385
     25 C         140.5768  141.1771  168.9136 C.ar    1  UNL1        0.1469
     26 C         139.3868  140.2756  168.7683 C.ar    1  UNL1        0.0385
     27 C         139.1442  139.5563  167.4746 C.ar    1  UNL1        0.0178
     28 O         140.8194  141.8964  170.2073 O.3     1  UNL1       -0.4045
     29 C         140.4898  143.3548  170.3278 C.3     1  UNL1        0.5753
     30 F         140.1602  144.8132  170.4484 F       1  UNL1       -0.1328
     31 F         141.8916  143.7049  169.9251 F       1  UNL1       -0.1328
     32 F         139.0880  143.0047  170.7306 F       1  UNL1       -0.1328
@<TRIPOS>BOND
     1    18    19    3
     2    19     1    1
     3     1     2   ar
     4     2    14    1
     5    14    15    1
     6    14    16    1
     7    14    17    1
     8     2     3   ar
     9     3     4   ar
    10     4    20    1
    11    20    22    1
    12    22    23   ar
    13    23    24   ar
    14    24    25   ar
    15    25    28    1
    16    28    29    1
    17    29    30    1
    18    29    31    1
    19    29    32    1
    20    25    26   ar
    21    26    27   ar
    22     4     5   ar
    23     5     6   ar
    24     6     7   ar
    25     7     8   ar
    26     8     9   ar
    27     9    10   ar
    28    10    11   ar
    29    11    12   ar
    30    12    13   ar
    31     6     1   ar
    32    13     8   ar
    33    27    22   ar
    34    13     5   ar
    35    20    21    1
@<TRIPOS>MOLECULE
*****
 32 35 0 0 0
SMALL
GASTEIGER

@<TRIPOS>ATOM
      1 C         140.9352  141.7076  168.1477 C.ar    1  UNL1        0.1068
      2 C         141.1164  140.2239  168.2728 C.ar    1  UNL1        0.0867
      3 C         140.5760  139.3103  167.2130 C.ar    1  UNL1        0.0377
      4 C         139.8543  139.8805  166.0280 C.ar    1  UNL1        0.1178
      5 N         139.6730  141.3642  165.9029 N.ar    1  UNL1       -0.2779
      6 C         140.2134  142.2778  166.9628 C.ar    1  UNL1        0.1582
      7 N         139.8846  143.6878  166.5709 N.ar    1  UNL1       -0.2258
      8 C         139.1409  143.6458  165.2689 C.ar    1  UNL1        0.0990
      9 C         138.5660  144.7296  164.4060 C.ar    1  UNL1        0.0206
     10 C         137.8602  144.3773  163.1302 C.ar    1  UNL1        0.0016
     11 C         137.7295  142.9412  162.7173 C.ar    1  UNL1        0.0016
     12 C         138.3044  141.8573  163.5803 C.ar    1  UNL1        0.0191
     13 C         139.0102  142.2096  164.8561 C.ar    1  UNL1        0.0841
     14 C         141.8381  139.6537  169.4578 C.3     1  UNL1        0.4194
     15 F         142.5599  139.0835  170.6427 F       1  UNL1       -0.1658
     16 F         140.5257  139.4254  170.1473 F       1  UNL1       -0.1658
     17 F         143.1506  139.8820  168.7682 F       1  UNL1       -0.1658
     18 N         142.0161  143.5346  170.2675 N.1     1  UNL1       -0.1907
     19 C         141.4756  142.6212  169.2076 C.1     1  UNL1        0.1034
     20 N         139.3138  138.9668  164.9681 N.pl3   1  UNL1       -0.2990
     21 H         138.4012  138.6063  165.0476 H       1  UNL1        0.1536
     22 C         140.1640  138.6026  163.7872 C.ar    1  UNL1        0.0495
     23 C         139.5498  138.5070  162.4220 C.ar    1  UNL1        0.0178
     24 C         140.3999  138.1428  161.2411 C.ar    1  UNL1        0.0385
     25 C         141.8641  137.8741  161.4253 C.ar    1  UNL1        0.1469
     26 C         142.4781  137.9696  162.7904 C.ar    1  UNL1        0.0385
     27 C         141.6281  138.3339  163.9714 C.ar    1  UNL1        0.0178
     28 O         142.7142  137.5099  160.2443 O.3     1  UNL1       -0.4045
     29 C         142.8717  138.4755  159.1072 C.3     1  UNL1        0.5753
     30 F         143.0293  139.4411  157.9702 F       1  UNL1       -0.1328
     31 F         141.9803  137.6198  158.2570 F       1  UNL1       -0.1328
     32 F         143.7632  139.3312  159.9575 F       1  UNL1       -0.1328
@<TRIPOS>BOND
     1    18    19    3
     2    19     1    1
     3     1     2   ar
     4     2    14    1
     5    14    15    1
     6    14    16    1
     7    14    17    1
     8     2     3   ar
     9     3     4   ar
    10     4    20    1
    11    20    22    1
    12    22    23   ar
    13    23    24   ar
    14    24    25   ar
    15    25    28    1
    16    28    29    1
    17    29    30    1
    18    29    31    1
    19    29    32    1
    20    25    26   ar
    21    26    27   ar
    22     4     5   ar
    23     5     6   ar
    24     6     7   ar
    25     7     8   ar
    26     8     9   ar
    27     9    10   ar
    28    10    11   ar
    29    11    12   ar
    30    12    13   ar
    31     6     1   ar
    32    13     8   ar
    33    27    22   ar
    34    13     5   ar
    35    20    21    1
@<TRIPOS>MOLECULE
*****
 32 35 0 0 0
SMALL
GASTEIGER

@<TRIPOS>ATOM
      1 C         139.1368  139.2928  166.5704 C.ar    1  UNL1        0.1068
      2 C         139.5685  139.4363  165.1410 C.ar    1  UNL1        0.0867
      3 C         140.7372  140.3104  164.7947 C.ar    1  UNL1        0.0377
      4 C         141.4743  141.0410  165.8777 C.ar    1  UNL1        0.1178
      5 N         141.0427  140.8976  167.3071 N.ar    1  UNL1       -0.2779
      6 C         139.8739  140.0235  167.6534 C.ar    1  UNL1        0.1582
      7 N         139.6805  140.0758  169.1399 N.ar    1  UNL1       -0.2258
      8 C         140.7297  140.9822  169.7123 C.ar    1  UNL1        0.0990
      9 C         141.0272  141.4107  171.1187 C.ar    1  UNL1        0.0206
     10 C         142.1666  142.3471  171.3922 C.ar    1  UNL1        0.0016
     11 C         143.0085  142.8550  170.2594 C.ar    1  UNL1        0.0016
     12 C         142.7109  142.4265  168.8531 C.ar    1  UNL1        0.0191
     13 C         141.5715  141.4901  168.5795 C.ar    1  UNL1        0.0841
     14 C         138.8314  138.7056  164.0580 C.3     1  UNL1        0.4194
     15 F         138.0943  137.9750  162.9750 F       1  UNL1       -0.1658
     16 F         137.9180  139.8829  163.8854 F       1  UNL1       -0.1658
     17 F         139.7448  137.5284  164.2306 F       1  UNL1       -0.1658
     18 N         136.7993  137.5446  167.2629 N.1     1  UNL1       -0.1907
     19 C         137.9681  138.4187  166.9167 C.1     1  UNL1        0.1034
     20 N         142.6431  141.9152  165.5313 N.pl3   1  UNL1       -0.2990
     21 H         143.0898  142.4410  166.2336 H       1  UNL1        0.1536
     22 C         143.1312  141.9881  164.1148 C.ar    1  UNL1        0.0495
     23 C         142.5871  143.0337  163.1870 C.ar    1  UNL1        0.0178
     24 C         143.0751  143.1067  161.7706 C.ar    1  UNL1        0.0385
     25 C         144.1073  142.1342  161.2818 C.ar    1  UNL1        0.1469
     26 C         144.6514  141.0887  162.2096 C.ar    1  UNL1        0.0385
     27 C         144.1634  141.0157  163.6261 C.ar    1  UNL1        0.0178
     28 O         144.5954  142.2072  159.8653 O.3     1  UNL1       -0.4045
     29 C         143.6230  142.0847  158.7297 C.3     1  UNL1        0.5753
     30 F         142.6506  141.9622  157.5942 F       1  UNL1       -0.1328
     31 F         144.1318  143.3734  158.1550 F       1  UNL1       -0.1328
     32 F         143.1141  140.7961  159.3045 F       1  UNL1       -0.1328
@<TRIPOS>BOND
     1    18    19    3
     2    19     1    1
     3     1     2   ar
     4     2    14    1
     5    14    15    1
     6    14    16    1
     7    14    17    1
     8     2     3   ar
     9     3     4   ar
    10     4    20    1
    11    20    22    1
    12    22    23   ar
    13    23    24   ar
    14    24    25   ar
    15    25    28    1
    16    28    29    1
    17    29    30    1
    18    29    31    1
    19    29    32    1
    20    25    26   ar
    21    26    27   ar
    22     4     5   ar
    23     5     6   ar
    24     6     7   ar
    25     7     8   ar
    26     8     9   ar
    27     9    10   ar
    28    10    11   ar
    29    11    12   ar
    30    12    13   ar
    31     6     1   ar
    32    13     8   ar
    33    27    22   ar
    34    13     5   ar
    35    20    21    1
@<TRIPOS>MOLECULE
*****
 32 35 0 0 0
SMALL
GASTEIGER

@<TRIPOS>ATOM
      1 C         140.6013  140.2004  160.5625 C.ar    1  UNL1        0.1068
      2 C         142.0177  139.7330  160.7217 C.ar    1  UNL1        0.0867
      3 C         142.8564  140.2526  161.8516 C.ar    1  UNL1        0.0377
      4 C         142.2787  141.2396  162.8222 C.ar    1  UNL1        0.1178
      5 N         140.8623  141.7070  162.6630 N.ar    1  UNL1       -0.2779
      6 C         140.0236  141.1874  161.5332 C.ar    1  UNL1        0.1582
      7 N         138.6695  141.8255  161.6296 N.ar    1  UNL1       -0.2258
      8 C         138.6714  142.7395  162.8190 C.ar    1  UNL1        0.0990
      9 C         137.6141  143.6289  163.4030 C.ar    1  UNL1        0.0206
     10 C         137.9121  144.4450  164.6257 C.ar    1  UNL1        0.0016
     11 C         139.2674  144.3718  165.2644 C.ar    1  UNL1        0.0016
     12 C         140.3246  143.4824  164.6804 C.ar    1  UNL1        0.0191
     13 C         140.0266  142.6662  163.4577 C.ar    1  UNL1        0.0841
     14 C         142.5953  138.7460  159.7511 C.3     1  UNL1        0.4194
     15 F         143.1730  137.7589  158.7804 F       1  UNL1       -0.1658
     16 F         142.1255  137.6168  160.6197 F       1  UNL1       -0.1658
     17 F         143.0651  139.8751  158.8825 F       1  UNL1       -0.1658
     18 N         138.9237  139.1612  158.3029 N.1     1  UNL1       -0.1907
     19 C         139.7626  139.6808  159.4327 C.1     1  UNL1        0.1034
     20 N         143.1175  141.7592  163.9521 N.pl3   1  UNL1       -0.2990
     21 H         143.7427  142.5041  163.7990 H       1  UNL1        0.1536
     22 C         143.0037  141.1437  165.3153 C.ar    1  UNL1        0.0495
     23 C         142.9500  142.0199  166.5316 C.ar    1  UNL1        0.0178
     24 C         142.8362  141.4045  167.8948 C.ar    1  UNL1        0.0385
     25 C         142.7762  139.9129  168.0417 C.ar    1  UNL1        0.1469
     26 C         142.8299  139.0368  166.8254 C.ar    1  UNL1        0.0385
     27 C         142.9437  139.6522  165.4622 C.ar    1  UNL1        0.0178
     28 O         142.6624  139.2974  169.4048 O.3     1  UNL1       -0.4045
     29 C         141.6878  139.8541  170.4001 C.3     1  UNL1        0.5753
     30 F         140.7132  140.4107  171.3953 F       1  UNL1       -0.1328
     31 F         142.8233  140.2086  171.3137 F       1  UNL1       -0.1328
     32 F         140.5523  139.4995  169.4864 F       1  UNL1       -0.1328
@<TRIPOS>BOND
     1    18    19    3
     2    19     1    1
     3     1     2   ar
     4     2    14    1
     5    14    15    1
     6    14    16    1
     7    14    17    1
     8     2     3   ar
     9     3     4   ar
    10     4    20    1
    11    20    22    1
    12    22    23   ar
    13    23    24   ar
    14    24    25   ar
    15    25    28    1
    16    28    29    1
    17    29    30    1
    18    29    31    1
    19    29    32    1
    20    25    26   ar
    21    26    27   ar
    22     4     5   ar
    23     5     6   ar
    24     6     7   ar
    25     7     8   ar
    26     8     9   ar
    27     9    10   ar
    28    10    11   ar
    29    11    12   ar
    30    12    13   ar
    31     6     1   ar
    32    13     8   ar
    33    27    22   ar
    34    13     5   ar
    35    20    21    1
@<TRIPOS>MOLECULE
*****
 32 35 0 0 0
SMALL
GASTEIGER

@<TRIPOS>ATOM
      1 C         141.8603  141.0048  167.6441 C.ar    1  UNL1        0.1068
      2 C         140.4633  140.7796  168.1418 C.ar    1  UNL1        0.0867
      3 C         139.5119  139.9335  167.3487 C.ar    1  UNL1        0.0377
      4 C         139.9575  139.3127  166.0579 C.ar    1  UNL1        0.1178
      5 N         141.3545  139.5379  165.5603 N.ar    1  UNL1       -0.2779
      6 C         142.3059  140.3839  166.3534 C.ar    1  UNL1        0.1582
      7 N         143.6116  140.4281  165.6164 N.ar    1  UNL1       -0.2258
      8 C         143.4672  139.6094  164.3679 C.ar    1  UNL1        0.0990
      9 C         144.4257  139.2938  163.2581 C.ar    1  UNL1        0.0206
     10 C         143.9892  138.4280  162.1136 C.ar    1  UNL1        0.0016
     11 C         142.5941  137.8778  162.0789 C.ar    1  UNL1        0.0016
     12 C         141.6356  138.1934  163.1887 C.ar    1  UNL1        0.0191
     13 C         142.0721  139.0592  164.3332 C.ar    1  UNL1        0.0841
     14 C         140.0178  141.4004  169.4326 C.3     1  UNL1        0.4194
     15 F         139.5722  142.0213  170.7233 F       1  UNL1       -0.1658
     16 F         139.9346  142.7387  168.7601 F       1  UNL1       -0.1658
     17 F         140.1010  140.0621  170.1050 F       1  UNL1       -0.1658
     18 N         143.7631  142.6968  169.2304 N.1     1  UNL1       -0.1907
     19 C         142.8117  141.8508  168.4372 C.1     1  UNL1        0.1034
     20 N         139.0060  138.4666  165.2648 N.pl3   1  UNL1       -0.2990
     21 H         138.6497  137.6335  165.6499 H       1  UNL1        0.1536
     22 C         138.5973  138.8900  163.8851 C.ar    1  UNL1        0.0495
     23 C         138.3133  140.3344  163.5971 C.ar    1  UNL1        0.0178
     24 C         137.9046  140.7578  162.2174 C.ar    1  UNL1        0.0385
     25 C         137.7799  139.7368  161.1256 C.ar    1  UNL1        0.1469
     26 C         138.0639  138.2925  161.4136 C.ar    1  UNL1        0.0385
     27 C         138.4726  137.8690  162.7933 C.ar    1  UNL1        0.0178
     28 O         137.3713  140.1603  159.7459 O.3     1  UNL1       -0.4045
     29 C         138.3901  140.7295  158.8034 C.3     1  UNL1        0.5753
     30 F         139.4088  141.2987  157.8609 F       1  UNL1       -0.1328
     31 F         138.7826  139.3421  158.3899 F       1  UNL1       -0.1328
     32 F         137.9974  142.1168  159.2169 F       1  UNL1       -0.1328
@<TRIPOS>BOND
     1    18    19    3
     2    19     1    1
     3     1     2   ar
     4     2    14    1
     5    14    15    1
     6    14    16    1
     7    14    17    1
     8     2     3   ar
     9     3     4   ar
    10     4    20    1
    11    20    22    1
    12    22    23   ar
    13    23    24   ar
    14    24    25   ar
    15    25    28    1
    16    28    29    1
    17    29    30    1
    18    29    31    1
    19    29    32    1
    20    25    26   ar
    21    26    27   ar
    22     4     5   ar
    23     5     6   ar
    24     6     7   ar
    25     7     8   ar
    26     8     9   ar
    27     9    10   ar
    28    10    11   ar
    29    11    12   ar
    30    12    13   ar
    31     6     1   ar
    32    13     8   ar
    33    27    22   ar
    34    13     5   ar
    35    20    21    1
@<TRIPOS>MOLECULE
*****
 32 35 0 0 0
SMALL
GASTEIGER

@<TRIPOS>ATOM
      1 C         140.1825  140.0919  160.9881 C.ar    1  UNL1        0.1068
      2 C         138.8151  140.4661  161.4783 C.ar    1  UNL1        0.0867
      3 C         138.6648  141.3166  162.7047 C.ar    1  UNL1        0.0377
      4 C         139.8819  141.7927  163.4410 C.ar    1  UNL1        0.1178
      5 N         141.2492  141.4184  162.9509 N.ar    1  UNL1       -0.2779
      6 C         141.3995  140.5680  161.7245 C.ar    1  UNL1        0.1582
      7 N         142.8650  140.3612  161.4807 N.ar    1  UNL1       -0.2258
      8 C         143.6205  141.0837  162.5564 C.ar    1  UNL1        0.0990
      9 C         145.0886  141.2311  162.8260 C.ar    1  UNL1        0.0206
     10 C         145.5581  142.0319  164.0042 C.ar    1  UNL1        0.0016
     11 C         144.5595  142.6853  164.9128 C.ar    1  UNL1        0.0016
     12 C         143.0913  142.5380  164.6433 C.ar    1  UNL1        0.0191
     13 C         142.6218  141.7372  163.4651 C.ar    1  UNL1        0.0841
     14 C         137.5981  139.9900  160.7420 C.3     1  UNL1        0.4194
     15 F         136.3811  139.5139  160.0056 F       1  UNL1       -0.1658
     16 F         137.7410  141.1251  159.7718 F       1  UNL1       -0.1658
     17 F         137.4552  138.8549  161.7121 F       1  UNL1       -0.1658
     18 N         140.4831  138.3911  158.5352 N.1     1  UNL1       -0.1907
     19 C         140.3328  139.2414  159.7617 C.1     1  UNL1        0.1034
     20 N         139.7315  142.6432  164.6675 N.pl3   1  UNL1       -0.2990
     21 H         139.4988  143.5958  164.5805 H       1  UNL1        0.1536
     22 C         139.9356  142.0420  166.0266 C.ar    1  UNL1        0.0495
     23 C         140.4660  142.8856  167.1477 C.ar    1  UNL1        0.0178
     24 C         140.6702  142.2846  168.5068 C.ar    1  UNL1        0.0385
     25 C         140.3438  140.8400  168.7447 C.ar    1  UNL1        0.1469
     26 C         139.8133  139.9965  167.6236 C.ar    1  UNL1        0.0385
     27 C         139.6092  140.5975  166.2645 C.ar    1  UNL1        0.0178
     28 O         140.5479  140.2390  170.1038 O.3     1  UNL1       -0.4045
     29 C         141.9367  140.0312  170.6312 C.3     1  UNL1        0.5753
     30 F         143.3255  139.8234  171.1585 F       1  UNL1       -0.1328
     31 F         141.7956  141.2561  171.4853 F       1  UNL1       -0.1328
     32 F         142.0778  138.8063  169.7770 F       1  UNL1       -0.1328
@<TRIPOS>BOND
     1    18    19    3
     2    19     1    1
     3     1     2   ar
     4     2    14    1
     5    14    15    1
     6    14    16    1
     7    14    17    1
     8     2     3   ar
     9     3     4   ar
    10     4    20    1
    11    20    22    1
    12    22    23   ar
    13    23    24   ar
    14    24    25   ar
    15    25    28    1
    16    28    29    1
    17    29    30    1
    18    29    31    1
    19    29    32    1
    20    25    26   ar
    21    26    27   ar
    22     4     5   ar
    23     5     6   ar
    24     6     7   ar
    25     7     8   ar
    26     8     9   ar
    27     9    10   ar
    28    10    11   ar
    29    11    12   ar
    30    12    13   ar
    31     6     1   ar
    32    13     8   ar
    33    27    22   ar
    34    13     5   ar
    35    20    21    1
