@<TRIPOS>MOLECULE
*****
 28 31 0 0 0
SMALL
GASTEIGER

@<TRIPOS>ATOM
      1 C         140.4075  142.8479  165.7383 C.ar    1  UNL1       -0.0214
      2 C         139.3039  143.7641  165.2994 C.ar    1  UNL1       -0.0029
      3 C         139.5315  144.7254  164.1706 C.ar    1  UNL1        0.0155
      4 C         140.8627  144.7705  163.4808 C.ar    1  UNL1        0.0648
      5 C         141.9664  143.8543  163.9197 C.ar    1  UNL1        0.0155
      6 C         141.7387  142.8930  165.0485 C.ar    1  UNL1       -0.0029
      7 N         138.9749  139.7834  166.9911 N.3     1  UNL1       -0.2724
      8 C         139.5515  140.0679  168.3463 C.3     1  UNL1        0.0724
      9 C         140.2963  141.3677  168.2696 C.3     1  UNL1        0.0214
     10 C         140.9490  142.6647  167.8932 C.3     1  UNL1        0.0072
     11 C         140.1799  141.8866  166.8671 C.3     1  UNL1        0.0350
     12 C         139.3633  140.9074  166.0769 C.3     1  UNL1        0.0761
     13 C         138.6224  137.6664  165.5270 C.3     1  UNL1        0.0188
     14 C         138.1540  138.5853  166.6160 C.3     1  UNL1        0.0721
     15 N         141.0903  145.7318  162.3520 N.pl3   1  UNL1       -0.2150
     16 H         141.5109  146.6048  162.5261 H       1  UNL1        0.1737
     17 S         140.6771  145.3630  160.9580 S.O2    1  UNL1        0.0736
     18 O         139.3122  145.9308  161.2124 O.2     1  UNL1       -0.1499
     19 O         142.0421  144.7953  160.7037 O.2     1  UNL1       -0.1499
     20 C         140.2640  144.9943  159.5641 C.ar    1  UNL1        0.1251
     21 C         139.6449  143.6547  159.2949 C.ar    1  UNL1        0.0199
     22 C         139.2317  143.2859  157.9009 C.ar    1  UNL1       -0.0029
     23 C         139.4378  144.2565  156.7760 C.ar    1  UNL1       -0.0224
     24 C         140.0569  145.5960  157.0451 C.ar    1  UNL1       -0.0029
     25 C         140.4701  145.9649  158.4392 C.ar    1  UNL1        0.0199
     26 C         139.0246  143.8877  155.3820 C.3     1  UNL1        0.0224
     27 C         137.8405  144.5564  154.7489 C.3     1  UNL1        0.0047
     28 C         139.7955  142.8500  154.6211 C.3     1  UNL1        0.0047
@<TRIPOS>BOND
     1    13    14    1
     2    14     7    1
     3     7     8    1
     4     9     8    1
     5     9    10    1
     6    10    11    1
     7    11     1    1
     8     1     2   ar
     9     2     3   ar
    10     3     4   ar
    11     4    15    1
    12    15    17    1
    13    17    18    2
    14    17    19    2
    15    17    20    1
    16    20    21   ar
    17    21    22   ar
    18    22    23   ar
    19    23    26    1
    20    26    27    1
    21    26    28    1
    22    23    24   ar
    23    24    25   ar
    24     4     5   ar
    25     5     6   ar
    26    11    12    1
    27    12     7    1
    28    11     9    1
    29     6     1   ar
    30    25    20   ar
    31    15    16    1
@<TRIPOS>MOLECULE
*****
 28 31 0 0 0
SMALL
GASTEIGER

@<TRIPOS>ATOM
      1 C         140.4100  142.7670  165.7754 C.ar    1  UNL1       -0.0214
      2 C         139.2380  143.5636  165.2838 C.ar    1  UNL1       -0.0029
      3 C         139.4247  144.5791  164.1957 C.ar    1  UNL1        0.0155
      4 C         140.7835  144.7979  163.5992 C.ar    1  UNL1        0.0648
      5 C         141.9556  144.0011  164.0908 C.ar    1  UNL1        0.0155
      6 C         141.7688  142.9857  165.1789 C.ar    1  UNL1       -0.0029
      7 N         141.0405  141.6486  169.1465 N.3     1  UNL1       -0.2724
      8 C         140.2128  140.4232  168.8947 C.3     1  UNL1        0.0724
      9 C         139.7078  140.4868  167.4838 C.3     1  UNL1        0.0214
     10 C         139.3606  140.8212  166.0634 C.3     1  UNL1        0.0072
     11 C         140.2232  141.7515  166.8635 C.3     1  UNL1        0.0350
     12 C         141.0469  142.4695  167.8911 C.3     1  UNL1        0.0761
     13 C         142.7895  143.0632  170.4464 C.3     1  UNL1        0.0188
     14 C         141.7390  141.9927  170.4286 C.3     1  UNL1        0.0721
     15 N         140.9703  145.8133  162.5111 N.pl3   1  UNL1       -0.2150
     16 H         141.3238  146.7065  162.7267 H       1  UNL1        0.1737
     17 S         140.6184  145.4679  161.0944 S.O2    1  UNL1        0.0736
     18 O         139.3261  146.2168  161.2328 O.2     1  UNL1       -0.1499
     19 O         141.9108  144.7190  160.9561 O.2     1  UNL1       -0.1499
     20 C         140.2666  145.1224  159.6779 C.ar    1  UNL1        0.1251
     21 C         139.7688  143.7477  159.3426 C.ar    1  UNL1        0.0199
     22 C         139.4170  143.4022  157.9259 C.ar    1  UNL1       -0.0029
     23 C         139.5630  144.4314  156.8445 C.ar    1  UNL1       -0.0224
     24 C         140.0608  145.8061  157.1797 C.ar    1  UNL1       -0.0029
     25 C         140.4127  146.1516  158.5964 C.ar    1  UNL1        0.0199
     26 C         139.2112  144.0858  155.4279 C.3     1  UNL1        0.0224
     27 C         140.0823  143.1477  154.6462 C.3     1  UNL1        0.0047
     28 C         137.9882  144.6784  154.7930 C.3     1  UNL1        0.0047
@<TRIPOS>BOND
     1    13    14    1
     2    14     7    1
     3     7     8    1
     4     9     8    1
     5     9    10    1
     6    10    11    1
     7    11     1    1
     8     1     2   ar
     9     2     3   ar
    10     3     4   ar
    11     4    15    1
    12    15    17    1
    13    17    18    2
    14    17    19    2
    15    17    20    1
    16    20    21   ar
    17    21    22   ar
    18    22    23   ar
    19    23    26    1
    20    26    27    1
    21    26    28    1
    22    23    24   ar
    23    24    25   ar
    24     4     5   ar
    25     5     6   ar
    26    11    12    1
    27    12     7    1
    28    11     9    1
    29     6     1   ar
    30    25    20   ar
    31    15    16    1
@<TRIPOS>MOLECULE
*****
 28 31 0 0 0
SMALL
GASTEIGER

@<TRIPOS>ATOM
      1 C         142.0213  133.9143  155.7131 C.ar    1  UNL1       -0.0214
      2 C         142.9746  134.3776  156.7745 C.ar    1  UNL1       -0.0029
      3 C         143.0110  135.8240  157.1704 C.ar    1  UNL1        0.0155
      4 C         142.0941  136.8071  156.5048 C.ar    1  UNL1        0.0648
      5 C         141.1408  136.3437  155.4433 C.ar    1  UNL1        0.0155
      6 C         141.1044  134.8973  155.0475 C.ar    1  UNL1       -0.0029
      7 N         142.8436  130.4681  156.3915 N.3     1  UNL1       -0.2724
      8 C         142.1786  130.0574  155.1112 C.3     1  UNL1        0.0724
      9 C         141.6479  131.2934  154.4473 C.3     1  UNL1        0.0214
     10 C         141.2383  132.6756  154.0330 C.3     1  UNL1        0.0072
     11 C         141.9849  132.4679  155.3172 C.3     1  UNL1        0.0350
     12 C         142.7239  131.9579  156.5188 C.3     1  UNL1        0.0761
     13 C         144.5849  130.0742  158.2790 C.3     1  UNL1        0.0188
     14 C         143.5111  129.5502  157.3722 C.3     1  UNL1        0.0721
     15 N         142.1305  138.2534  156.9006 N.pl3   1  UNL1       -0.2150
     16 H         141.7925  138.9415  156.2829 H       1  UNL1        0.1737
     17 S         142.6819  138.6514  158.2376 S.O2    1  UNL1        0.0736
     18 O         143.9451  139.1190  157.5774 O.2     1  UNL1       -0.1499
     19 O         141.4186  138.1839  158.8977 O.2     1  UNL1       -0.1499
     20 C         143.2332  139.0494  159.5745 C.ar    1  UNL1        0.1251
     21 C         143.3238  138.0389  160.6794 C.ar    1  UNL1        0.0199
     22 C         143.8752  138.4368  162.0165 C.ar    1  UNL1       -0.0029
     23 C         144.3359  139.8453  162.2487 C.ar    1  UNL1       -0.0224
     24 C         144.2453  140.8558  161.1439 C.ar    1  UNL1       -0.0029
     25 C         143.6939  140.4579  159.8068 C.ar    1  UNL1        0.0199
     26 C         144.8872  140.2432  163.5857 C.3     1  UNL1        0.0224
     27 C         145.6821  141.5078  163.7230 C.3     1  UNL1        0.0047
     28 C         144.6436  139.3765  164.7855 C.3     1  UNL1        0.0047
@<TRIPOS>BOND
     1    13    14    1
     2    14     7    1
     3     7     8    1
     4     9     8    1
     5     9    10    1
     6    10    11    1
     7    11     1    1
     8     1     2   ar
     9     2     3   ar
    10     3     4   ar
    11     4    15    1
    12    15    17    1
    13    17    18    2
    14    17    19    2
    15    17    20    1
    16    20    21   ar
    17    21    22   ar
    18    22    23   ar
    19    23    26    1
    20    26    27    1
    21    26    28    1
    22    23    24   ar
    23    24    25   ar
    24     4     5   ar
    25     5     6   ar
    26    11    12    1
    27    12     7    1
    28    11     9    1
    29     6     1   ar
    30    25    20   ar
    31    15    16    1
@<TRIPOS>MOLECULE
*****
 28 31 0 0 0
SMALL
GASTEIGER

@<TRIPOS>ATOM
      1 C         139.7811  139.7936  167.6639 C.ar    1  UNL1       -0.0214
      2 C         138.4215  139.2193  167.3962 C.ar    1  UNL1       -0.0029
      3 C         138.1536  138.4936  166.1110 C.ar    1  UNL1        0.0155
      4 C         139.2453  138.3422  165.0935 C.ar    1  UNL1        0.0648
      5 C         140.6050  138.9165  165.3612 C.ar    1  UNL1        0.0155
      6 C         140.8729  139.6422  166.6464 C.ar    1  UNL1       -0.0029
      7 N         141.9810  141.7544  169.7444 N.3     1  UNL1       -0.2724
      8 C         140.9324  141.7934  170.8163 C.3     1  UNL1        0.0724
      9 C         139.7384  141.0300  170.3247 C.3     1  UNL1        0.0214
     10 C         138.7191  140.2233  169.5764 C.3     1  UNL1        0.0072
     11 C         140.0490  140.5192  168.9490 C.3     1  UNL1        0.0350
     12 C         141.4350  140.9669  168.5904 C.3     1  UNL1        0.0761
     13 C         143.5901  143.5141  170.7759 C.3     1  UNL1        0.0188
     14 C         143.3374  142.3910  169.8143 C.3     1  UNL1        0.0721
     15 N         138.9774  137.6166  163.8083 N.pl3   1  UNL1       -0.2150
     16 H         138.2657  136.9377  163.7654 H       1  UNL1        0.1737
     17 S         139.7939  137.9253  162.5885 S.O2    1  UNL1        0.0736
     18 O         140.7540  136.8325  162.9546 O.2     1  UNL1       -0.1499
     19 O         138.8338  139.0181  162.2224 O.2     1  UNL1       -0.1499
     20 C         140.6104  138.2340  161.3687 C.ar    1  UNL1        0.1251
     21 C         139.9472  138.7894  160.1432 C.ar    1  UNL1        0.0199
     22 C         140.7637  139.0981  158.9233 C.ar    1  UNL1       -0.0029
     23 C         142.2433  138.8515  158.9289 C.ar    1  UNL1       -0.0224
     24 C         142.9064  138.2962  160.1544 C.ar    1  UNL1       -0.0029
     25 C         142.0899  137.9874  161.3743 C.ar    1  UNL1        0.0199
     26 C         143.0597  139.1603  157.7090 C.3     1  UNL1        0.0224
     27 C         143.9421  140.3731  157.6843 C.3     1  UNL1        0.0047
     28 C         142.9937  138.2563  156.5139 C.3     1  UNL1        0.0047
@<TRIPOS>BOND
     1    13    14    1
     2    14     7    1
     3     7     8    1
     4     9     8    1
     5     9    10    1
     6    10    11    1
     7    11     1    1
     8     1     2   ar
     9     2     3   ar
    10     3     4   ar
    11     4    15    1
    12    15    17    1
    13    17    18    2
    14    17    19    2
    15    17    20    1
    16    20    21   ar
    17    21    22   ar
    18    22    23   ar
    19    23    26    1
    20    26    27    1
    21    26    28    1
    22    23    24   ar
    23    24    25   ar
    24     4     5   ar
    25     5     6   ar
    26    11    12    1
    27    12     7    1
    28    11     9    1
    29     6     1   ar
    30    25    20   ar
    31    15    16    1
@<TRIPOS>MOLECULE
*****
 28 31 0 0 0
SMALL
GASTEIGER

@<TRIPOS>ATOM
      1 C         142.5849  138.4371  158.9253 C.ar    1  UNL1       -0.0214
      2 C         142.9677  139.8862  158.8664 C.ar    1  UNL1       -0.0029
      3 C         143.7176  140.5107  160.0057 C.ar    1  UNL1        0.0155
      4 C         144.0845  139.6861  161.2037 C.ar    1  UNL1        0.0648
      5 C         143.7016  138.2369  161.2626 C.ar    1  UNL1        0.0155
      6 C         142.9518  137.6125  160.1234 C.ar    1  UNL1       -0.0029
      7 N         142.2500  135.8170  156.4685 N.3     1  UNL1       -0.2724
      8 C         140.9916  136.4552  155.9595 C.3     1  UNL1        0.0724
      9 C         140.7351  137.6885  156.7738 C.3     1  UNL1        0.0214
     10 C         140.7420  138.8387  157.7366 C.3     1  UNL1        0.0072
     11 C         141.8350  137.8127  157.7861 C.3     1  UNL1        0.0350
     12 C         142.7713  136.6560  157.5974 C.3     1  UNL1        0.0761
     13 C         143.0520  133.3743  156.8423 C.3     1  UNL1        0.0188
     14 C         142.8771  134.5606  155.9412 C.3     1  UNL1        0.0721
     15 N         144.8343  140.3105  162.3430 N.pl3   1  UNL1       -0.2150
     16 H         145.7065  140.7381  162.1827 H       1  UNL1        0.1737
     17 S         144.2552  140.2835  163.7264 S.O2    1  UNL1        0.0736
     18 O         143.2680  141.3425  163.3338 O.2     1  UNL1       -0.1499
     19 O         145.2425  139.2245  164.1189 O.2     1  UNL1       -0.1499
     20 C         143.6762  140.2565  165.1098 C.ar    1  UNL1        0.1251
     21 C         143.2335  141.5323  165.7626 C.ar    1  UNL1        0.0199
     22 C         142.6544  141.5053  167.1461 C.ar    1  UNL1       -0.0029
     23 C         142.5181  140.2024  167.8768 C.ar    1  UNL1       -0.0224
     24 C         142.9609  138.9265  167.2240 C.ar    1  UNL1       -0.0029
     25 C         143.5399  138.9536  165.8405 C.ar    1  UNL1        0.0199
     26 C         141.9391  140.1754  169.2602 C.3     1  UNL1        0.0224
     27 C         142.8374  140.3236  170.4523 C.3     1  UNL1        0.0047
     28 C         140.4617  140.0002  169.4516 C.3     1  UNL1        0.0047
@<TRIPOS>BOND
     1    13    14    1
     2    14     7    1
     3     7     8    1
     4     9     8    1
     5     9    10    1
     6    10    11    1
     7    11     1    1
     8     1     2   ar
     9     2     3   ar
    10     3     4   ar
    11     4    15    1
    12    15    17    1
    13    17    18    2
    14    17    19    2
    15    17    20    1
    16    20    21   ar
    17    21    22   ar
    18    22    23   ar
    19    23    26    1
    20    26    27    1
    21    26    28    1
    22    23    24   ar
    23    24    25   ar
    24     4     5   ar
    25     5     6   ar
    26    11    12    1
    27    12     7    1
    28    11     9    1
    29     6     1   ar
    30    25    20   ar
    31    15    16    1
@<TRIPOS>MOLECULE
*****
 28 31 0 0 0
SMALL
GASTEIGER

@<TRIPOS>ATOM
      1 C         142.8541  139.9760  167.3227 C.ar    1  UNL1       -0.0214
      2 C         143.3185  138.6836  166.7192 C.ar    1  UNL1       -0.0029
      3 C         143.9697  138.6781  165.3679 C.ar    1  UNL1        0.0155
      4 C         144.1566  139.9650  164.6202 C.ar    1  UNL1        0.0648
      5 C         143.6922  141.2574  165.2237 C.ar    1  UNL1        0.0155
      6 C         143.0410  141.2628  166.5750 C.ar    1  UNL1       -0.0029
      7 N         140.7417  141.5823  169.7661 N.3     1  UNL1       -0.2724
      8 C         140.9607  140.4363  170.7088 C.3     1  UNL1        0.0724
      9 C         141.8638  139.4469  170.0338 C.3     1  UNL1        0.0214
     10 C         142.7602  138.6629  169.1219 C.3     1  UNL1        0.0072
     11 C         142.2029  139.9814  168.6739 C.3     1  UNL1        0.0350
     12 C         141.5095  141.3012  168.5085 C.3     1  UNL1        0.0761
     13 C         140.5211  144.1618  169.9837 C.3     1  UNL1        0.0188
     14 C         139.9024  142.7963  170.0339 C.3     1  UNL1        0.0721
     15 N         144.8078  139.9595  163.2689 N.pl3   1  UNL1       -0.2150
     16 H         145.5726  139.3649  163.0935 H       1  UNL1        0.1737
     17 S         144.2938  140.8600  162.1850 S.O2    1  UNL1        0.0736
     18 O         143.0544  140.0220  162.0766 O.2     1  UNL1       -0.1499
     19 O         145.5332  141.6980  162.2935 O.2     1  UNL1       -0.1499
     20 C         143.7798  141.7605  161.1012 C.ar    1  UNL1        0.1251
     21 C         144.2642  141.5899  159.6918 C.ar    1  UNL1        0.0199
     22 C         143.7502  142.4904  158.6078 C.ar    1  UNL1       -0.0029
     23 C         142.7519  143.5616  158.9332 C.ar    1  UNL1       -0.0224
     24 C         142.2674  143.7322  160.3426 C.ar    1  UNL1       -0.0029
     25 C         142.7814  142.8317  161.4265 C.ar    1  UNL1        0.0199
     26 C         142.2379  144.4621  157.8493 C.3     1  UNL1        0.0224
     27 C         141.4964  145.7165  158.2051 C.3     1  UNL1        0.0047
     28 C         142.4655  144.1081  156.4095 C.3     1  UNL1        0.0047
@<TRIPOS>BOND
     1    13    14    1
     2    14     7    1
     3     7     8    1
     4     9     8    1
     5     9    10    1
     6    10    11    1
     7    11     1    1
     8     1     2   ar
     9     2     3   ar
    10     3     4   ar
    11     4    15    1
    12    15    17    1
    13    17    18    2
    14    17    19    2
    15    17    20    1
    16    20    21   ar
    17    21    22   ar
    18    22    23   ar
    19    23    26    1
    20    26    27    1
    21    26    28    1
    22    23    24   ar
    23    24    25   ar
    24     4     5   ar
    25     5     6   ar
    26    11    12    1
    27    12     7    1
    28    11     9    1
    29     6     1   ar
    30    25    20   ar
    31    15    16    1
@<TRIPOS>MOLECULE
*****
 28 31 0 0 0
SMALL
GASTEIGER

@<TRIPOS>ATOM
      1 C         141.4570  138.6990  159.1142 C.ar    1  UNL1       -0.0214
      2 C         141.9949  138.2122  160.4271 C.ar    1  UNL1       -0.0029
      3 C         141.0610  137.9626  161.5741 C.ar    1  UNL1        0.0155
      4 C         139.5892  138.1998  161.4082 C.ar    1  UNL1        0.0648
      5 C         139.0513  138.6867  160.0953 C.ar    1  UNL1        0.0155
      6 C         139.9852  138.9363  158.9483 C.ar    1  UNL1       -0.0029
      7 N         143.5312  137.4419  156.4440 N.3     1  UNL1       -0.2724
      8 C         143.9051  138.8465  156.0732 C.3     1  UNL1        0.0724
      9 C         143.2004  139.7777  157.0147 C.3     1  UNL1        0.0214
     10 C         142.3817  140.4443  158.0802 C.3     1  UNL1        0.0072
     11 C         142.3909  138.9486  157.9673 C.3     1  UNL1        0.0350
     12 C         142.5953  137.5051  157.6145 C.3     1  UNL1        0.0761
     13 C         143.6925  134.8505  156.3519 C.3     1  UNL1        0.0188
     14 C         144.0091  136.1935  155.7636 C.3     1  UNL1        0.0721
     15 N         138.6553  137.9503  162.5552 N.pl3   1  UNL1       -0.2150
     16 H         137.8297  137.4328  162.4141 H       1  UNL1        0.1737
     17 S         138.9793  138.4891  163.9170 S.O2    1  UNL1        0.0736
     18 O         138.7121  139.8822  163.4294 O.2     1  UNL1       -0.1499
     19 O         139.2465  137.0959  164.4047 O.2     1  UNL1       -0.1499
     20 C         139.3033  139.0279  165.2788 C.ar    1  UNL1        0.1251
     21 C         138.2718  138.9852  166.3671 C.ar    1  UNL1        0.0199
     22 C         138.5958  139.5240  167.7291 C.ar    1  UNL1       -0.0029
     23 C         139.9512  140.1054  168.0027 C.ar    1  UNL1       -0.0224
     24 C         140.9826  140.1481  166.9144 C.ar    1  UNL1       -0.0029
     25 C         140.6586  139.6093  165.5525 C.ar    1  UNL1        0.0199
     26 C         140.2751  140.6442  169.3646 C.3     1  UNL1        0.0224
     27 C         140.9530  139.7681  170.3761 C.3     1  UNL1        0.0047
     28 C         139.9212  142.0591  169.7151 C.3     1  UNL1        0.0047
@<TRIPOS>BOND
     1    13    14    1
     2    14     7    1
     3     7     8    1
     4     9     8    1
     5     9    10    1
     6    10    11    1
     7    11     1    1
     8     1     2   ar
     9     2     3   ar
    10     3     4   ar
    11     4    15    1
    12    15    17    1
    13    17    18    2
    14    17    19    2
    15    17    20    1
    16    20    21   ar
    17    21    22   ar
    18    22    23   ar
    19    23    26    1
    20    26    27    1
    21    26    28    1
    22    23    24   ar
    23    24    25   ar
    24     4     5   ar
    25     5     6   ar
    26    11    12    1
    27    12     7    1
    28    11     9    1
    29     6     1   ar
    30    25    20   ar
    31    15    16    1
@<TRIPOS>MOLECULE
*****
 28 31 0 0 0
SMALL
GASTEIGER

@<TRIPOS>ATOM
      1 C         140.1690  144.0486  159.4163 C.ar    1  UNL1       -0.0214
      2 C         139.2557  142.8997  159.1069 C.ar    1  UNL1       -0.0029
      3 C         138.4012  142.3083  160.1887 C.ar    1  UNL1        0.0155
      4 C         138.4602  142.8659  161.5800 C.ar    1  UNL1        0.0648
      5 C         139.3736  144.0149  161.8894 C.ar    1  UNL1        0.0155
      6 C         140.2280  144.6062  160.8076 C.ar    1  UNL1       -0.0029
      7 N         140.5136  146.1551  156.5083 N.3     1  UNL1       -0.2724
      8 C         141.9741  145.8205  156.4390 C.3     1  UNL1        0.0724
      9 C         142.2892  144.8841  157.5676 C.3     1  UNL1        0.0214
     10 C         142.2994  143.9780  158.7630 C.3     1  UNL1        0.0072
     11 C         141.0234  144.6399  158.3345 C.3     1  UNL1        0.0350
     12 C         139.9260  145.4254  157.6797 C.3     1  UNL1        0.0761
     13 C         140.3183  147.3336  154.2011 C.3     1  UNL1        0.0188
     14 C         139.7710  147.0604  155.5707 C.3     1  UNL1        0.0721
     15 N         137.6059  142.2747  162.6619 N.pl3   1  UNL1       -0.2150
     16 H         136.6357  142.1778  162.5253 H       1  UNL1        0.1737
     17 S         138.2297  141.8309  163.9518 S.O2    1  UNL1        0.0736
     18 O         138.8077  140.6321  163.2599 O.2     1  UNL1       -0.1499
     19 O         137.6515  143.0298  164.6437 O.2     1  UNL1       -0.1499
     20 C         138.8534  141.3872  165.2417 C.ar    1  UNL1        0.1251
     21 C         138.5205  140.0401  165.8114 C.ar    1  UNL1        0.0199
     22 C         139.1443  139.5964  167.1014 C.ar    1  UNL1       -0.0029
     23 C         140.1009  140.4998  167.8217 C.ar    1  UNL1       -0.0224
     24 C         140.4338  141.8469  167.2520 C.ar    1  UNL1       -0.0029
     25 C         139.8100  142.2906  165.9620 C.ar    1  UNL1        0.0199
     26 C         140.7247  140.0560  169.1117 C.3     1  UNL1        0.0224
     27 C         139.9611  140.1826  170.3966 C.3     1  UNL1        0.0047
     28 C         142.1120  139.4857  169.1168 C.3     1  UNL1        0.0047
@<TRIPOS>BOND
     1    13    14    1
     2    14     7    1
     3     7     8    1
     4     9     8    1
     5     9    10    1
     6    10    11    1
     7    11     1    1
     8     1     2   ar
     9     2     3   ar
    10     3     4   ar
    11     4    15    1
    12    15    17    1
    13    17    18    2
    14    17    19    2
    15    17    20    1
    16    20    21   ar
    17    21    22   ar
    18    22    23   ar
    19    23    26    1
    20    26    27    1
    21    26    28    1
    22    23    24   ar
    23    24    25   ar
    24     4     5   ar
    25     5     6   ar
    26    11    12    1
    27    12     7    1
    28    11     9    1
    29     6     1   ar
    30    25    20   ar
    31    15    16    1
@<TRIPOS>MOLECULE
*****
 28 31 0 0 0
SMALL
GASTEIGER

@<TRIPOS>ATOM
      1 C         139.4335  142.0142  164.3453 C.ar    1  UNL1       -0.0214
      2 C         138.9591  142.1603  162.9299 C.ar    1  UNL1       -0.0029
      3 C         139.4366  143.3105  162.0937 C.ar    1  UNL1        0.0155
      4 C         140.3885  144.3146  162.6731 C.ar    1  UNL1        0.0648
      5 C         140.8629  144.1684  164.0887 C.ar    1  UNL1        0.0155
      6 C         140.3855  143.0182  164.9247 C.ar    1  UNL1       -0.0029
      7 N         139.4062  140.2306  167.4808 N.3     1  UNL1       -0.2724
      8 C         138.4710  139.2148  166.8947 C.3     1  UNL1        0.0724
      9 C         138.1928  139.6062  165.4736 C.3     1  UNL1        0.0214
     10 C         138.1064  140.2376  164.1158 C.3     1  UNL1        0.0072
     11 C         138.9561  140.8639  165.1814 C.3     1  UNL1        0.0350
     12 C         139.7060  141.2498  166.4219 C.3     1  UNL1        0.0761
     13 C         139.0208  140.4337  170.0420 C.3     1  UNL1        0.0188
     14 C         139.9466  140.2277  168.8800 C.3     1  UNL1        0.0721
     15 N         140.8659  145.4648  161.8371 N.pl3   1  UNL1       -0.2150
     16 H         141.0289  146.3419  162.2536 H       1  UNL1        0.1737
     17 S         141.0951  145.2787  160.3664 S.O2    1  UNL1        0.0736
     18 O         142.4220  144.6411  160.6538 O.2     1  UNL1       -0.1499
     19 O         139.7681  145.9164  160.0790 O.2     1  UNL1       -0.1499
     20 C         141.3241  145.0927  158.8958 C.ar    1  UNL1        0.1251
     21 C         142.3166  144.0763  158.4140 C.ar    1  UNL1        0.0199
     22 C         142.5457  143.8902  156.9433 C.ar    1  UNL1       -0.0029
     23 C         141.7823  144.7205  155.9544 C.ar    1  UNL1       -0.0224
     24 C         140.7899  145.7369  156.4361 C.ar    1  UNL1       -0.0029
     25 C         140.5608  145.9230  157.9069 C.ar    1  UNL1        0.0199
     26 C         142.0115  144.5344  154.4837 C.3     1  UNL1        0.0224
     27 C         141.7315  145.6601  153.5326 C.3     1  UNL1        0.0047
     28 C         142.5205  143.2226  153.9641 C.3     1  UNL1        0.0047
@<TRIPOS>BOND
     1    13    14    1
     2    14     7    1
     3     7     8    1
     4     9     8    1
     5     9    10    1
     6    10    11    1
     7    11     1    1
     8     1     2   ar
     9     2     3   ar
    10     3     4   ar
    11     4    15    1
    12    15    17    1
    13    17    18    2
    14    17    19    2
    15    17    20    1
    16    20    21   ar
    17    21    22   ar
    18    22    23   ar
    19    23    26    1
    20    26    27    1
    21    26    28    1
    22    23    24   ar
    23    24    25   ar
    24     4     5   ar
    25     5     6   ar
    26    11    12    1
    27    12     7    1
    28    11     9    1
    29     6     1   ar
    30    25    20   ar
    31    15    16    1
