@<TRIPOS>MOLECULE
*****
 62 69 0 0 0
SMALL
GASTEIGER

@<TRIPOS>ATOM
      1 C         144.0479  141.4843  158.2283 C.ar    1  UNL1        0.2284
      2 N         145.0851  142.5318  157.9513 N.ar    1  UNL1       -0.1893
      3 C         146.0419  142.3565  156.8095 C.ar    1  UNL1        0.2020
      4 N         145.9614  141.1336  155.9446 N.ar    1  UNL1       -0.2171
      5 C         144.9242  140.0860  156.2215 C.ar    1  UNL1        0.1169
      6 S         144.6060  138.7852  155.5458 S.2     1  UNL1       -0.0678
      7 C         143.4527  138.1565  156.2701 C.ar    1  UNL1        0.0310
      8 C         143.0579  139.0688  157.3934 C.ar    1  UNL1        0.0122
      9 C         143.9674  140.2614  157.3633 C.ar    1  UNL1        0.0775
     10 C         141.9486  138.8305  158.3744 C.ar    1  UNL1       -0.0023
     11 C         140.5205  138.9975  157.9469 C.ar    1  UNL1        0.0029
     12 C         139.4111  138.7592  158.9278 C.ar    1  UNL1        0.0378
     13 C         139.7298  138.3540  160.3365 C.ar    1  UNL1        0.1487
     14 C         141.1578  138.1871  160.7641 C.ar    1  UNL1        0.0876
     15 CL        141.4765  137.7819  162.1727 Cl      1  UNL1       -0.0794
     16 C         142.2672  138.4253  159.7831 C.ar    1  UNL1       -0.0083
     17 C         143.6953  138.2584  160.2107 C.3     1  UNL1        0.0320
     18 O         138.6204  138.1157  161.3176 O.3     1  UNL1       -0.4731
     19 C         138.2633  139.1750  162.3177 C.3     1  UNL1        0.2227
     20 C         138.0435  140.5886  161.8667 C.3     1  UNL1        0.1201
     21 N         138.1609  141.7161  162.8491 N.3     1  UNL1       -0.2672
     22 C         137.6889  143.0897  162.4744 C.3     1  UNL1        0.0898
     23 C         137.8063  144.2171  163.4567 C.3     1  UNL1        0.0897
     24 N         138.3959  143.9710  164.8139 N.3     1  UNL1       -0.2691
     25 C         138.5134  145.0985  165.7962 C.3     1  UNL1        0.0897
     26 C         138.8680  142.5975  165.1886 C.3     1  UNL1        0.0897
     27 C         138.7505  141.4700  164.2062 C.3     1  UNL1        0.0898
     28 C         142.8073  136.8456  155.9306 C.ar    1  UNL1        0.0062
     29 C         141.8006  136.7703  154.8212 C.ar    1  UNL1        0.0028
     30 C         141.1553  135.4595  154.4817 C.ar    1  UNL1        0.0297
     31 C         141.5168  134.2240  155.2516 C.ar    1  UNL1        0.1401
     32 F         140.8714  132.9131  154.9121 F       1  UNL1       -0.2042
     33 C         142.5235  134.2993  156.3610 C.ar    1  UNL1        0.0297
     34 C         143.1688  135.6101  156.7005 C.ar    1  UNL1        0.0028
     35 O         143.0911  141.6596  159.3701 O.3     1  UNL1       -0.4578
     36 C         141.7836  142.3617  159.1520 C.3     1  UNL1        0.2079
     37 C         141.4612  142.9463  157.8087 C.2     1  UNL1        0.0904
     38 O         140.4154  142.3072  156.9440 O.co2   1  UNL1       -0.5455
     39 O         142.1848  144.1700  157.3301 O.co2   1  UNL1       -0.5455
     40 C         140.7985  142.4792  160.2771 C.3     1  UNL1        0.0789
     41 C         141.7141  142.7589  162.6924 C.ar    1  UNL1        0.1352
     42 C         142.0230  143.6332  163.8714 C.ar    1  UNL1        0.0366
     43 C         141.7251  145.1023  163.8141 C.ar    1  UNL1        0.0031
     44 C         141.1184  145.6969  162.5779 C.ar    1  UNL1       -0.0001
     45 C         140.8096  144.8226  161.3989 C.ar    1  UNL1       -0.0011
     46 C         141.1074  143.3536  161.4561 C.ar    1  UNL1        0.0158
     47 O         142.0120  141.2899  162.7496 O.3     1  UNL1       -0.4693
     48 C         143.2431  140.8011  163.4534 C.3     1  UNL1        0.2509
     49 C         142.3264  140.4400  167.2978 C.ar    1  UNL1        0.1649
     50 N         142.9348  139.1050  167.6101 N.ar    1  UNL1       -0.2249
     51 C         143.6459  138.3354  166.5368 C.ar    1  UNL1        0.1019
     52 C         143.7487  138.9007  165.1513 C.ar    1  UNL1        0.0391
     53 C         143.1403  140.2357  164.8390 C.ar    1  UNL1        0.1058
     54 N         142.4291  141.0054  165.9122 N.ar    1  UNL1       -0.2271
     55 C         140.3119  140.7062  168.9167 C.ar    1  UNL1        0.1416
     56 C         139.6007  141.4758  169.9899 C.ar    1  UNL1        0.0370
     57 C         140.1928  142.7490  170.5175 C.ar    1  UNL1        0.0031
     58 C         141.4961  143.2525  169.9718 C.ar    1  UNL1        0.0003
     59 C         142.2073  142.4829  168.8986 C.ar    1  UNL1        0.0061
     60 C         141.6152  141.2097  168.3710 C.ar    1  UNL1        0.0697
     61 C         138.7098  139.4782  167.2809 C.3     1  UNL1        0.2525
     62 O         139.7197  139.4329  168.3891 O.3     1  UNL1       -0.4713
@<TRIPOS>UNITY_ATOM_ATTR
38 1
charge -1
@<TRIPOS>BOND
     1    61    62    1
     2    62    55    1
     3    55    56   ar
     4    56    57   ar
     5    57    58   ar
     6    58    59   ar
     7    59    60   ar
     8    60    49    1
     9    49    50   ar
    10    50    51   ar
    11    51    52   ar
    12    52    53   ar
    13    53    48    1
    14    48    47    1
    15    47    41    1
    16    41    42   ar
    17    42    43   ar
    18    43    44   ar
    19    44    45   ar
    20    45    46   ar
    21    46    40    1
    22    36    40    1
    23    36    35    1
    24    35     1    1
    25     1     2   ar
    26     2     3   ar
    27     3     4   ar
    28     4     5   ar
    29     5     6   ar
    30     6     7   ar
    31     7    28    1
    32    28    29   ar
    33    29    30   ar
    34    30    31   ar
    35    31    32    1
    36    31    33   ar
    37    33    34   ar
    38     7     8   ar
    39     8    10    1
    40    10    11   ar
    41    11    12   ar
    42    12    13   ar
    43    13    18    1
    44    18    19    1
    45    19    20    1
    46    20    21    1
    47    21    22    1
    48    22    23    1
    49    23    24    1
    50    24    25    1
    51    24    26    1
    52    26    27    1
    53    13    14   ar
    54    14    15    1
    55    14    16   ar
    56    16    17    1
    57     8     9   ar
    58    36    37    1
    59    37    38   ar
    60    37    39   ar
    61    53    54   ar
    62    60    55   ar
    63    54    49   ar
    64    46    41   ar
    65     9     1   ar
    66     9     5   ar
    67    34    28   ar
    68    16    10   ar
    69    27    21    1
@<TRIPOS>MOLECULE
*****
 62 69 0 0 0
SMALL
GASTEIGER

@<TRIPOS>ATOM
      1 C         143.3982  143.2500  161.4290 C.ar    1  UNL1        0.2284
      2 N         144.1863  143.4337  162.6920 N.ar    1  UNL1       -0.1893
      3 C         145.0400  142.3157  163.2126 C.ar    1  UNL1        0.2020
      4 N         145.1057  141.0139  162.4703 N.ar    1  UNL1       -0.2171
      5 C         144.3177  140.8302  161.2073 C.ar    1  UNL1        0.1169
      6 S         144.1849  139.6690  160.2671 S.2     1  UNL1       -0.0678
      7 C         143.2490  140.0694  159.1653 C.ar    1  UNL1        0.0310
      8 C         142.8035  141.4780  159.4246 C.ar    1  UNL1        0.0122
      9 C         143.4640  141.9482  160.6867 C.ar    1  UNL1        0.0775
     10 C         141.8626  142.2763  158.5716 C.ar    1  UNL1       -0.0023
     11 C         142.3987  143.3254  157.6432 C.ar    1  UNL1        0.0029
     12 C         141.4580  144.1237  156.7902 C.ar    1  UNL1        0.0378
     13 C         139.9810  143.8729  156.8657 C.ar    1  UNL1        0.1487
     14 C         139.4449  142.8238  157.7941 C.ar    1  UNL1        0.0876
     15 CL        137.9679  142.5730  157.8696 Cl      1  UNL1       -0.0794
     16 C         140.3857  142.0255  158.6471 C.ar    1  UNL1       -0.0083
     17 C         139.8495  140.9764  159.5755 C.3     1  UNL1        0.0320
     18 O         139.0402  144.6712  156.0128 O.3     1  UNL1       -0.4731
     19 C         139.4662  146.0034  155.4708 C.3     1  UNL1        0.2227
     20 C         139.1339  147.2592  156.2208 C.3     1  UNL1        0.1201
     21 N         139.1199  148.5780  155.5063 N.3     1  UNL1       -0.2672
     22 C         139.7316  148.6985  154.1421 C.3     1  UNL1        0.0898
     23 C         139.7176  150.0174  153.4276 C.3     1  UNL1        0.0897
     24 N         139.0919  151.2158  154.0774 N.3     1  UNL1       -0.2691
     25 C         139.0779  152.5346  153.3629 C.3     1  UNL1        0.0897
     26 C         138.4801  151.0953  155.4416 C.3     1  UNL1        0.0897
     27 C         138.4941  149.7765  156.1561 C.3     1  UNL1        0.0898
     28 C         142.8320  139.2117  158.0075 C.ar    1  UNL1        0.0062
     29 C         143.3685  139.4918  156.6350 C.ar    1  UNL1        0.0028
     30 C         142.9514  138.6341  155.4773 C.ar    1  UNL1        0.0297
     31 C         141.9979  137.4963  155.6920 C.ar    1  UNL1        0.1401
     32 F         141.5809  136.6385  154.5342 F       1  UNL1       -0.2042
     33 C         141.4615  137.2161  157.0645 C.ar    1  UNL1        0.0297
     34 C         141.8785  138.0738  158.2222 C.ar    1  UNL1        0.0028
     35 O         142.5444  144.3680  160.9083 O.3     1  UNL1       -0.4578
     36 C         141.1061  144.4685  161.3220 C.3     1  UNL1        0.2079
     37 C         140.2826  145.6463  160.8920 C.2     1  UNL1        0.0904
     38 O         139.8074  145.7512  159.4732 O.co2   1  UNL1       -0.5455
     39 O         139.9343  146.7190  161.8809 O.co2   1  UNL1       -0.5455
     40 C         140.4914  143.3915  162.1658 C.3     1  UNL1        0.0789
     41 C         138.1085  143.2553  163.1922 C.ar    1  UNL1        0.1352
     42 C         137.1399  143.6153  164.2795 C.ar    1  UNL1        0.0366
     43 C         137.5856  144.4717  165.4276 C.ar    1  UNL1        0.0031
     44 C         138.9998  144.9679  165.4884 C.ar    1  UNL1       -0.0001
     45 C         139.9684  144.6078  164.4011 C.ar    1  UNL1       -0.0011
     46 C         139.5228  143.7515  163.2530 C.ar    1  UNL1        0.0158
     47 O         137.6629  142.3990  162.0441 O.3     1  UNL1       -0.4693
     48 C         137.1982  140.9945  162.2921 C.3     1  UNL1        0.2509
     49 C         139.6094  139.3787  164.9987 C.ar    1  UNL1        0.1649
     50 N         139.9127  138.0579  164.3556 N.ar    1  UNL1       -0.2249
     51 C         139.3112  137.7160  163.0247 C.ar    1  UNL1        0.1019
     52 C         138.4064  138.6949  162.3369 C.ar    1  UNL1        0.0391
     53 C         138.1031  140.0156  162.9800 C.ar    1  UNL1        0.1058
     54 N         138.7046  140.3575  164.3109 N.ar    1  UNL1       -0.2271
     55 C         141.6719  140.0447  166.4313 C.ar    1  UNL1        0.1416
     56 C         142.2734  140.3866  167.7622 C.ar    1  UNL1        0.0370
     57 C         141.4139  140.4044  168.9914 C.ar    1  UNL1        0.0031
     58 C         139.9529  140.0802  168.8897 C.ar    1  UNL1        0.0003
     59 C         139.3514  139.7383  167.5588 C.ar    1  UNL1        0.0061
     60 C         140.2109  139.7206  166.3296 C.ar    1  UNL1        0.0697
     61 C         143.4232  138.8526  164.9274 C.3     1  UNL1        0.2525
     62 O         142.5314  140.0270  165.2021 O.3     1  UNL1       -0.4713
@<TRIPOS>UNITY_ATOM_ATTR
38 1
charge -1
@<TRIPOS>BOND
     1    61    62    1
     2    62    55    1
     3    55    56   ar
     4    56    57   ar
     5    57    58   ar
     6    58    59   ar
     7    59    60   ar
     8    60    49    1
     9    49    50   ar
    10    50    51   ar
    11    51    52   ar
    12    52    53   ar
    13    53    48    1
    14    48    47    1
    15    47    41    1
    16    41    42   ar
    17    42    43   ar
    18    43    44   ar
    19    44    45   ar
    20    45    46   ar
    21    46    40    1
    22    36    40    1
    23    36    35    1
    24    35     1    1
    25     1     2   ar
    26     2     3   ar
    27     3     4   ar
    28     4     5   ar
    29     5     6   ar
    30     6     7   ar
    31     7    28    1
    32    28    29   ar
    33    29    30   ar
    34    30    31   ar
    35    31    32    1
    36    31    33   ar
    37    33    34   ar
    38     7     8   ar
    39     8    10    1
    40    10    11   ar
    41    11    12   ar
    42    12    13   ar
    43    13    18    1
    44    18    19    1
    45    19    20    1
    46    20    21    1
    47    21    22    1
    48    22    23    1
    49    23    24    1
    50    24    25    1
    51    24    26    1
    52    26    27    1
    53    13    14   ar
    54    14    15    1
    55    14    16   ar
    56    16    17    1
    57     8     9   ar
    58    36    37    1
    59    37    38   ar
    60    37    39   ar
    61    53    54   ar
    62    60    55   ar
    63    54    49   ar
    64    46    41   ar
    65     9     1   ar
    66     9     5   ar
    67    34    28   ar
    68    16    10   ar
    69    27    21    1
@<TRIPOS>MOLECULE
*****
 62 69 0 0 0
SMALL
GASTEIGER

@<TRIPOS>ATOM
      1 C         143.7845  141.4795  157.8337 C.ar    1  UNL1        0.2284
      2 N         144.7467  142.5525  157.4180 N.ar    1  UNL1       -0.1893
      3 C         145.6814  142.3174  156.2687 C.ar    1  UNL1        0.2020
      4 N         145.6539  141.0094  155.5350 N.ar    1  UNL1       -0.2171
      5 C         144.6917  139.9364  155.9506 C.ar    1  UNL1        0.1169
      6 S         144.4371  138.5564  155.4208 S.2     1  UNL1       -0.0678
      7 C         143.3450  137.9385  156.2428 C.ar    1  UNL1        0.0310
      8 C         142.9246  138.9366  157.2806 C.ar    1  UNL1        0.0122
      9 C         143.7570  140.1714  157.1000 C.ar    1  UNL1        0.0775
     10 C         141.8591  138.7354  158.3169 C.ar    1  UNL1       -0.0023
     11 C         140.4251  139.0227  157.9838 C.ar    1  UNL1        0.0029
     12 C         139.3595  138.8215  159.0201 C.ar    1  UNL1        0.0378
     13 C         139.7279  138.3329  160.3896 C.ar    1  UNL1        0.1487
     14 C         141.1620  138.0456  160.7227 C.ar    1  UNL1        0.0876
     15 CL        141.5305  137.5570  162.0922 Cl      1  UNL1       -0.0794
     16 C         142.2276  138.2468  159.6864 C.ar    1  UNL1       -0.0083
     17 C         143.6616  137.9595  160.0196 C.3     1  UNL1        0.0320
     18 O         138.6624  138.1316  161.4260 O.3     1  UNL1       -0.4731
     19 C         138.7337  138.8720  162.7286 C.3     1  UNL1        0.2227
     20 C         138.7226  138.1146  164.0233 C.3     1  UNL1        0.1201
     21 N         139.3729  138.7013  165.2410 N.3     1  UNL1       -0.2672
     22 C         138.5278  139.2592  166.3475 C.3     1  UNL1        0.0898
     23 C         139.1781  139.8459  167.5652 C.3     1  UNL1        0.0897
     24 N         140.6737  139.8746  167.6765 N.3     1  UNL1       -0.2691
     25 C         141.3241  140.4613  168.8942 C.3     1  UNL1        0.0897
     26 C         141.5189  139.3167  166.5700 C.3     1  UNL1        0.0897
     27 C         140.8685  138.7300  165.3523 C.3     1  UNL1        0.0898
     28 C         142.7736  136.5637  156.0591 C.ar    1  UNL1        0.0062
     29 C         141.6015  136.3544  155.1468 C.ar    1  UNL1        0.0028
     30 C         141.0302  134.9797  154.9631 C.ar    1  UNL1        0.0297
     31 C         141.6309  133.8144  155.6919 C.ar    1  UNL1        0.1401
     32 F         141.0595  132.4396  155.5082 F       1  UNL1       -0.2042
     33 C         142.8029  134.0237  156.6043 C.ar    1  UNL1        0.0297
     34 C         143.3743  135.3984  156.7879 C.ar    1  UNL1        0.0028
     35 O         142.8497  141.7144  158.9831 O.3     1  UNL1       -0.4578
     36 C         142.3684  143.1023  159.2867 C.3     1  UNL1        0.2079
     37 C         142.8431  143.8071  160.5229 C.2     1  UNL1        0.0904
     38 O         141.9695  144.8311  161.1847 O.co2   1  UNL1       -0.5455
     39 O         144.1916  143.4878  161.0972 O.co2   1  UNL1       -0.5455
     40 C         141.4125  143.7854  158.3542 C.3     1  UNL1        0.0789
     41 C         139.0150  142.7885  158.4447 C.ar    1  UNL1        0.1352
     42 C         137.9078  142.0075  157.8012 C.ar    1  UNL1        0.0366
     43 C         138.0908  141.4426  156.4237 C.ar    1  UNL1        0.0031
     44 C         139.3810  141.6586  155.6898 C.ar    1  UNL1       -0.0001
     45 C         140.4882  142.4396  156.3333 C.ar    1  UNL1       -0.0011
     46 C         140.3053  143.0045  157.7107 C.ar    1  UNL1        0.0158
     47 O         138.8321  143.3534  159.8221 O.3     1  UNL1       -0.4693
     48 C         138.2761  142.4930  160.9178 C.3     1  UNL1        0.2509
     49 C         141.1444  142.0043  163.6167 C.ar    1  UNL1        0.1649
     50 N         140.3863  142.2597  164.8855 N.ar    1  UNL1       -0.2249
     51 C         138.9248  142.5930  164.8318 C.ar    1  UNL1        0.1019
     52 C         138.2214  142.6707  163.5093 C.ar    1  UNL1        0.0391
     53 C         138.9795  142.4152  162.2404 C.ar    1  UNL1        0.1058
     54 N         140.4410  142.0820  162.2942 N.ar    1  UNL1       -0.2271
     55 C         143.5827  142.6675  164.2207 C.ar    1  UNL1        0.1416
     56 C         145.0442  142.3343  164.2744 C.ar    1  UNL1        0.0370
     57 C         145.5290  141.0045  163.7779 C.ar    1  UNL1        0.0031
     58 C         144.5523  140.0080  163.2276 C.ar    1  UNL1        0.0003
     59 C         143.0908  140.3412  163.1738 C.ar    1  UNL1        0.0061
     60 C         142.6060  141.6710  163.6704 C.ar    1  UNL1        0.0697
     61 C         143.6747  145.2632  164.1561 C.3     1  UNL1        0.2525
     62 O         143.0979  143.9974  164.7173 O.3     1  UNL1       -0.4713
@<TRIPOS>UNITY_ATOM_ATTR
38 1
charge -1
@<TRIPOS>BOND
     1    61    62    1
     2    62    55    1
     3    55    56   ar
     4    56    57   ar
     5    57    58   ar
     6    58    59   ar
     7    59    60   ar
     8    60    49    1
     9    49    50   ar
    10    50    51   ar
    11    51    52   ar
    12    52    53   ar
    13    53    48    1
    14    48    47    1
    15    47    41    1
    16    41    42   ar
    17    42    43   ar
    18    43    44   ar
    19    44    45   ar
    20    45    46   ar
    21    46    40    1
    22    36    40    1
    23    36    35    1
    24    35     1    1
    25     1     2   ar
    26     2     3   ar
    27     3     4   ar
    28     4     5   ar
    29     5     6   ar
    30     6     7   ar
    31     7    28    1
    32    28    29   ar
    33    29    30   ar
    34    30    31   ar
    35    31    32    1
    36    31    33   ar
    37    33    34   ar
    38     7     8   ar
    39     8    10    1
    40    10    11   ar
    41    11    12   ar
    42    12    13   ar
    43    13    18    1
    44    18    19    1
    45    19    20    1
    46    20    21    1
    47    21    22    1
    48    22    23    1
    49    23    24    1
    50    24    25    1
    51    24    26    1
    52    26    27    1
    53    13    14   ar
    54    14    15    1
    55    14    16   ar
    56    16    17    1
    57     8     9   ar
    58    36    37    1
    59    37    38   ar
    60    37    39   ar
    61    53    54   ar
    62    60    55   ar
    63    54    49   ar
    64    46    41   ar
    65     9     1   ar
    66     9     5   ar
    67    34    28   ar
    68    16    10   ar
    69    27    21    1
@<TRIPOS>MOLECULE
*****
 62 69 0 0 0
SMALL
GASTEIGER

@<TRIPOS>ATOM
      1 C         144.1575  141.5238  157.8022 C.ar    1  UNL1        0.2284
      2 N         145.2454  142.5056  157.4821 N.ar    1  UNL1       -0.1893
      3 C         146.2272  142.2068  156.3883 C.ar    1  UNL1        0.2020
      4 N         146.1212  140.9262  155.6145 N.ar    1  UNL1       -0.2171
      5 C         145.0333  139.9444  155.9345 C.ar    1  UNL1        0.1169
      6 S         144.6811  138.6098  155.3474 S.2     1  UNL1       -0.0678
      7 C         143.4815  138.0838  156.0783 C.ar    1  UNL1        0.0310
      8 C         143.0923  139.0933  157.1173 C.ar    1  UNL1        0.0122
      9 C         144.0514  140.2432  157.0284 C.ar    1  UNL1        0.0775
     10 C         141.9455  138.9738  158.0767 C.ar    1  UNL1       -0.0023
     11 C         142.1010  138.1730  159.3354 C.ar    1  UNL1        0.0029
     12 C         140.9542  138.0535  160.2949 C.ar    1  UNL1        0.0378
     13 C         139.6519  138.7349  159.9955 C.ar    1  UNL1        0.1487
     14 C         139.4964  139.5358  158.7368 C.ar    1  UNL1        0.0876
     15 CL        138.1941  140.2172  158.4375 Cl      1  UNL1       -0.0794
     16 C         140.6432  139.6552  157.7774 C.ar    1  UNL1       -0.0083
     17 C         140.4877  140.4561  156.5186 C.3     1  UNL1        0.0320
     18 O         138.5051  138.6155  160.9549 O.3     1  UNL1       -0.4731
     19 C         138.6434  139.1304  162.3570 C.3     1  UNL1        0.2227
     20 C         137.7758  140.2587  162.8306 C.3     1  UNL1        0.1201
     21 N         138.1857  141.6786  162.5743 N.3     1  UNL1       -0.2672
     22 C         137.4955  142.7999  163.2927 C.3     1  UNL1        0.0898
     23 C         137.9054  144.2198  163.0364 C.3     1  UNL1        0.0897
     24 N         139.0057  144.5185  162.0616 N.3     1  UNL1       -0.2691
     25 C         139.4156  145.9385  161.8053 C.3     1  UNL1        0.0897
     26 C         139.6959  143.3972  161.3432 C.3     1  UNL1        0.0897
     27 C         139.2860  141.9773  161.5995 C.3     1  UNL1        0.0898
     28 C         142.7922  136.7775  155.8163 C.ar    1  UNL1        0.0062
     29 C         143.2558  135.5321  156.5119 C.ar    1  UNL1        0.0028
     30 C         142.5665  134.2259  156.2499 C.ar    1  UNL1        0.0297
     31 C         141.4135  134.1652  155.2923 C.ar    1  UNL1        0.1401
     32 F         140.7242  132.8589  155.0303 F       1  UNL1       -0.2042
     33 C         140.9499  135.4106  154.5968 C.ar    1  UNL1        0.0297
     34 C         141.6392  136.7168  154.8588 C.ar    1  UNL1        0.0028
     35 O         143.1755  141.8226  158.8961 O.3     1  UNL1       -0.4578
     36 C         143.5495  142.7629  160.0033 C.3     1  UNL1        0.2079
     37 C         142.7836  144.0385  160.1948 C.2     1  UNL1        0.0904
     38 O         142.0203  144.6341  159.0492 O.co2   1  UNL1       -0.5455
     39 O         142.7811  144.7182  161.5319 O.co2   1  UNL1       -0.5455
     40 C         144.6892  142.4278  160.9191 C.3     1  UNL1        0.0789
     41 C         144.9268  141.4410  163.3107 C.ar    1  UNL1        0.1352
     42 C         144.8145  140.2802  164.2541 C.ar    1  UNL1        0.0366
     43 C         144.3524  138.9454  163.7492 C.ar    1  UNL1        0.0031
     44 C         144.0025  138.7715  162.3011 C.ar    1  UNL1       -0.0001
     45 C         144.1148  139.9323  161.3577 C.ar    1  UNL1       -0.0011
     46 C         144.5769  141.2670  161.8625 C.ar    1  UNL1        0.0158
     47 O         145.3889  142.7757  163.8156 O.3     1  UNL1       -0.4693
     48 C         144.3904  143.7691  164.3315 C.3     1  UNL1        0.2509
     49 C         142.0881  142.0105  167.0438 C.ar    1  UNL1        0.1649
     50 N         140.7240  142.3456  166.5179 N.ar    1  UNL1       -0.2249
     51 C         140.5819  143.1553  165.2632 C.ar    1  UNL1        0.1019
     52 C         141.8040  143.6297  164.5344 C.ar    1  UNL1        0.0391
     53 C         143.1682  143.2946  165.0603 C.ar    1  UNL1        0.1058
     54 N         143.3103  142.4850  166.3150 N.ar    1  UNL1       -0.2271
     55 C         142.0996  141.8638  169.6377 C.ar    1  UNL1        0.1416
     56 C         142.2417  141.0541  170.8924 C.ar    1  UNL1        0.0370
     57 C         142.5144  139.5816  170.8080 C.ar    1  UNL1        0.0031
     58 C         142.6449  138.9187  169.4688 C.ar    1  UNL1        0.0003
     59 C         142.5029  139.7283  168.2141 C.ar    1  UNL1        0.0061
     60 C         142.2302  141.2008  168.2985 C.ar    1  UNL1        0.0697
     61 C         140.4170  143.8320  169.8495 C.3     1  UNL1        0.2525
     62 O         141.8270  143.3364  169.7222 O.3     1  UNL1       -0.4713
@<TRIPOS>UNITY_ATOM_ATTR
38 1
charge -1
@<TRIPOS>BOND
     1    61    62    1
     2    62    55    1
     3    55    56   ar
     4    56    57   ar
     5    57    58   ar
     6    58    59   ar
     7    59    60   ar
     8    60    49    1
     9    49    50   ar
    10    50    51   ar
    11    51    52   ar
    12    52    53   ar
    13    53    48    1
    14    48    47    1
    15    47    41    1
    16    41    42   ar
    17    42    43   ar
    18    43    44   ar
    19    44    45   ar
    20    45    46   ar
    21    46    40    1
    22    36    40    1
    23    36    35    1
    24    35     1    1
    25     1     2   ar
    26     2     3   ar
    27     3     4   ar
    28     4     5   ar
    29     5     6   ar
    30     6     7   ar
    31     7    28    1
    32    28    29   ar
    33    29    30   ar
    34    30    31   ar
    35    31    32    1
    36    31    33   ar
    37    33    34   ar
    38     7     8   ar
    39     8    10    1
    40    10    11   ar
    41    11    12   ar
    42    12    13   ar
    43    13    18    1
    44    18    19    1
    45    19    20    1
    46    20    21    1
    47    21    22    1
    48    22    23    1
    49    23    24    1
    50    24    25    1
    51    24    26    1
    52    26    27    1
    53    13    14   ar
    54    14    15    1
    55    14    16   ar
    56    16    17    1
    57     8     9   ar
    58    36    37    1
    59    37    38   ar
    60    37    39   ar
    61    53    54   ar
    62    60    55   ar
    63    54    49   ar
    64    46    41   ar
    65     9     1   ar
    66     9     5   ar
    67    34    28   ar
    68    16    10   ar
    69    27    21    1
@<TRIPOS>MOLECULE
*****
 62 69 0 0 0
SMALL
GASTEIGER

@<TRIPOS>ATOM
      1 C         139.6903  143.6749  157.1376 C.ar    1  UNL1        0.2284
      2 N         139.7382  144.9643  156.3727 N.ar    1  UNL1       -0.1893
      3 C         140.3639  145.0051  155.0101 C.ar    1  UNL1        0.2020
      4 N         140.9417  143.7566  154.4124 N.ar    1  UNL1       -0.2171
      5 C         140.8939  142.4672  155.1773 C.ar    1  UNL1        0.1169
      6 S         141.3782  141.0863  154.8481 S.2     1  UNL1       -0.0678
      7 C         141.0518  140.1919  156.0073 C.ar    1  UNL1        0.0310
      8 C         140.3658  141.0201  157.0529 C.ar    1  UNL1        0.0122
      9 C         140.2682  142.4264  156.5399 C.ar    1  UNL1        0.0775
     10 C         139.8653  140.5285  158.3787 C.ar    1  UNL1       -0.0023
     11 C         140.8380  140.1948  159.4707 C.ar    1  UNL1        0.0029
     12 C         140.3375  139.7032  160.7965 C.ar    1  UNL1        0.0378
     13 C         138.8643  139.5453  161.0303 C.ar    1  UNL1        0.1487
     14 C         137.8916  139.8791  159.9383 C.ar    1  UNL1        0.0876
     15 CL        136.4183  139.7212  160.1721 Cl      1  UNL1       -0.0794
     16 C         138.3920  140.3707  158.6125 C.ar    1  UNL1       -0.0083
     17 C         137.4193  140.7044  157.5205 C.3     1  UNL1        0.0320
     18 O         138.3637  139.0537  162.3561 O.3     1  UNL1       -0.4731
     19 C         139.2553  139.1075  163.5612 C.3     1  UNL1        0.2227
     20 C         138.6685  139.3651  164.9174 C.3     1  UNL1        0.1201
     21 N         139.4320  140.1740  165.9237 N.3     1  UNL1       -0.2672
     22 C         140.3109  141.3012  165.4687 C.3     1  UNL1        0.0898
     23 C         141.0744  142.1101  166.4750 C.3     1  UNL1        0.0897
     24 N         140.9591  141.7919  167.9363 N.3     1  UNL1       -0.2691
     25 C         141.7227  142.6008  168.9426 C.3     1  UNL1        0.0897
     26 C         140.0803  140.6647  168.3912 C.3     1  UNL1        0.0897
     27 C         139.3167  139.8558  167.3850 C.3     1  UNL1        0.0898
     28 C         141.3578  138.7266  156.1038 C.ar    1  UNL1        0.0062
     29 C         140.4643  137.7278  155.4300 C.ar    1  UNL1        0.0028
     30 C         140.7703  136.2626  155.5266 C.ar    1  UNL1        0.0297
     31 C         141.9699  135.7961  156.2970 C.ar    1  UNL1        0.1401
     32 F         142.2759  134.3308  156.3935 F       1  UNL1       -0.2042
     33 C         142.8634  136.7949  156.9708 C.ar    1  UNL1        0.0297
     34 C         142.5574  138.2601  156.8742 C.ar    1  UNL1        0.0028
     35 O         139.0646  143.6340  158.5003 O.3     1  UNL1       -0.4578
     36 C         139.8324  144.1216  159.6931 C.3     1  UNL1        0.2079
     37 C         140.3786  145.5186  159.7136 C.2     1  UNL1        0.0904
     38 O         139.5630  146.6342  160.2969 O.co2   1  UNL1       -0.5455
     39 O         141.7403  145.7998  159.1509 O.co2   1  UNL1       -0.5455
     40 C         140.0542  143.2123  160.8652 C.3     1  UNL1        0.0789
     41 C         139.8103  144.4675  163.1269 C.ar    1  UNL1        0.1352
     42 C         139.0678  144.7020  164.4090 C.ar    1  UNL1        0.0366
     43 C         137.8267  143.9157  164.7115 C.ar    1  UNL1        0.0031
     44 C         137.3281  142.8950  163.7319 C.ar    1  UNL1       -0.0001
     45 C         138.0706  142.6606  162.4498 C.ar    1  UNL1       -0.0011
     46 C         139.3117  143.4468  162.1473 C.ar    1  UNL1        0.0158
     47 O         141.0514  145.2538  162.8244 O.3     1  UNL1       -0.4693
     48 C         142.1418  145.3577  163.8492 C.3     1  UNL1        0.2509
     49 C         143.9147  141.8333  163.4191 C.ar    1  UNL1        0.1649
     50 N         144.9746  141.9182  164.4771 N.ar    1  UNL1       -0.2249
     51 C         145.0902  143.1496  165.3258 C.ar    1  UNL1        0.1019
     52 C         144.1460  144.2961  165.1165 C.ar    1  UNL1        0.0391
     53 C         143.0861  144.2112  164.0585 C.ar    1  UNL1        0.1058
     54 N         142.9705  142.9798  163.2098 N.ar    1  UNL1       -0.2271
     55 C         144.1442  140.6611  161.1119 C.ar    1  UNL1        0.1416
     56 C         144.0286  139.4297  160.2632 C.ar    1  UNL1        0.0370
     57 C         143.5678  138.1390  160.8730 C.ar    1  UNL1        0.0031
     58 C         143.2227  138.0798  162.3316 C.ar    1  UNL1        0.0003
     59 C         143.3384  139.3112  163.1803 C.ar    1  UNL1        0.0061
     60 C         143.7991  140.6019  162.5704 C.ar    1  UNL1        0.0697
     61 C         143.6442  142.7962  159.7186 C.3     1  UNL1        0.2525
     62 O         144.6050  141.9518  160.5020 O.3     1  UNL1       -0.4713
@<TRIPOS>UNITY_ATOM_ATTR
38 1
charge -1
@<TRIPOS>BOND
     1    61    62    1
     2    62    55    1
     3    55    56   ar
     4    56    57   ar
     5    57    58   ar
     6    58    59   ar
     7    59    60   ar
     8    60    49    1
     9    49    50   ar
    10    50    51   ar
    11    51    52   ar
    12    52    53   ar
    13    53    48    1
    14    48    47    1
    15    47    41    1
    16    41    42   ar
    17    42    43   ar
    18    43    44   ar
    19    44    45   ar
    20    45    46   ar
    21    46    40    1
    22    36    40    1
    23    36    35    1
    24    35     1    1
    25     1     2   ar
    26     2     3   ar
    27     3     4   ar
    28     4     5   ar
    29     5     6   ar
    30     6     7   ar
    31     7    28    1
    32    28    29   ar
    33    29    30   ar
    34    30    31   ar
    35    31    32    1
    36    31    33   ar
    37    33    34   ar
    38     7     8   ar
    39     8    10    1
    40    10    11   ar
    41    11    12   ar
    42    12    13   ar
    43    13    18    1
    44    18    19    1
    45    19    20    1
    46    20    21    1
    47    21    22    1
    48    22    23    1
    49    23    24    1
    50    24    25    1
    51    24    26    1
    52    26    27    1
    53    13    14   ar
    54    14    15    1
    55    14    16   ar
    56    16    17    1
    57     8     9   ar
    58    36    37    1
    59    37    38   ar
    60    37    39   ar
    61    53    54   ar
    62    60    55   ar
    63    54    49   ar
    64    46    41   ar
    65     9     1   ar
    66     9     5   ar
    67    34    28   ar
    68    16    10   ar
    69    27    21    1
@<TRIPOS>MOLECULE
*****
 62 69 0 0 0
SMALL
GASTEIGER

@<TRIPOS>ATOM
      1 C         142.7290  142.8899  155.6558 C.ar    1  UNL1        0.2284
      2 N         143.0917  144.1484  154.9246 N.ar    1  UNL1       -0.1893
      3 C         143.6945  144.0716  153.5532 C.ar    1  UNL1        0.2020
      4 N         143.9345  142.7365  152.9131 N.ar    1  UNL1       -0.2171
      5 C         143.5718  141.4781  153.6443 C.ar    1  UNL1        0.1169
      6 S         143.6907  140.0302  153.2706 S.2     1  UNL1       -0.0678
      7 C         143.1615  139.2121  154.4111 C.ar    1  UNL1        0.0310
      8 C         142.7154  140.1544  155.4896 C.ar    1  UNL1        0.0122
      9 C         142.9691  141.5548  155.0157 C.ar    1  UNL1        0.0775
     10 C         142.1203  139.7646  156.8102 C.ar    1  UNL1       -0.0023
     11 C         140.7023  139.2807  156.8802 C.ar    1  UNL1        0.0029
     12 C         140.1070  138.8909  158.2007 C.ar    1  UNL1        0.0378
     13 C         140.9299  138.9852  159.4512 C.ar    1  UNL1        0.1487
     14 C         142.3480  139.4691  159.3813 C.ar    1  UNL1        0.0876
     15 CL        143.1709  139.5634  160.6319 Cl      1  UNL1       -0.0794
     16 C         142.9432  139.8589  158.0608 C.ar    1  UNL1       -0.0083
     17 C         144.3612  140.3429  157.9908 C.3     1  UNL1        0.0320
     18 O         140.3348  138.5955  160.7718 O.3     1  UNL1       -0.4731
     19 C         138.8468  138.4736  160.9171 C.3     1  UNL1        0.2227
     20 C         138.2535  138.0496  162.2279 C.3     1  UNL1        0.1201
     21 N         138.6545  138.7477  163.4935 N.3     1  UNL1       -0.2672
     22 C         138.1168  140.1143  163.7990 C.3     1  UNL1        0.0898
     23 C         138.5178  140.8124  165.0646 C.3     1  UNL1        0.0897
     24 N         139.4565  140.1440  166.0248 N.3     1  UNL1       -0.2691
     25 C         139.8575  140.8422  167.2904 C.3     1  UNL1        0.0897
     26 C         139.9942  138.7774  165.7194 C.3     1  UNL1        0.0897
     27 C         139.5932  138.0793  164.4538 C.3     1  UNL1        0.0898
     28 C         143.0907  137.7147  154.4637 C.ar    1  UNL1        0.0062
     29 C         142.1586  136.9754  153.5501 C.ar    1  UNL1        0.0028
     30 C         142.0879  135.4780  153.6028 C.ar    1  UNL1        0.0297
     31 C         142.9491  134.7199  154.5690 C.ar    1  UNL1        0.1401
     32 F         142.8783  133.2225  154.6216 F       1  UNL1       -0.2042
     33 C         143.8812  135.4593  155.4826 C.ar    1  UNL1        0.0297
     34 C         143.9519  136.9566  155.4299 C.ar    1  UNL1        0.0028
     35 O         142.1262  142.9666  157.0273 O.3     1  UNL1       -0.4578
     36 C         141.2923  144.1517  157.4148 C.3     1  UNL1        0.2079
     37 C         141.8387  145.1744  158.3664 C.2     1  UNL1        0.0904
     38 O         142.5183  146.4028  157.8383 O.co2   1  UNL1       -0.5455
     39 O         141.7055  144.9686  159.8463 O.co2   1  UNL1       -0.5455
     40 C         139.9120  144.3141  156.8506 C.3     1  UNL1        0.0789
     41 C         138.3080  142.4748  157.7420 C.ar    1  UNL1        0.1352
     42 C         137.4512  141.2682  157.4969 C.ar    1  UNL1        0.0366
     43 C         137.3415  140.6944  156.1153 C.ar    1  UNL1        0.0031
     44 C         138.0886  141.3272  154.9789 C.ar    1  UNL1       -0.0001
     45 C         138.9454  142.5337  155.2240 C.ar    1  UNL1       -0.0011
     46 C         139.0552  143.1076  156.6055 C.ar    1  UNL1        0.0158
     47 O         138.4178  143.0486  159.1235 O.3     1  UNL1       -0.4693
     48 C         138.5436  142.1356  160.3070 C.3     1  UNL1        0.2509
     49 C         141.3778  142.4012  163.0722 C.ar    1  UNL1        0.1649
     50 N         140.8151  143.4774  163.9525 N.ar    1  UNL1       -0.2249
     51 C         139.4952  144.1064  163.6176 C.ar    1  UNL1        0.1019
     52 C         138.7380  143.6592  162.4025 C.ar    1  UNL1        0.0391
     53 C         139.3007  142.5829  161.5222 C.ar    1  UNL1        0.1058
     54 N         140.6207  141.9539  161.8571 N.ar    1  UNL1       -0.2271
     55 C         143.9748  142.4718  163.0471 C.ar    1  UNL1        0.1416
     56 C         145.2947  141.8427  163.3819 C.ar    1  UNL1        0.0370
     57 C         145.3376  140.5141  164.0768 C.ar    1  UNL1        0.0031
     58 C         144.0606  139.8145  164.4368 C.ar    1  UNL1        0.0003
     59 C         142.7406  140.4435  164.1020 C.ar    1  UNL1        0.0061
     60 C         142.6978  141.7722  163.4071 C.ar    1  UNL1        0.0697
     61 C         143.8920  145.0663  163.1559 C.3     1  UNL1        0.2525
     62 O         143.9320  143.8004  162.3521 O.3     1  UNL1       -0.4713
@<TRIPOS>UNITY_ATOM_ATTR
38 1
charge -1
@<TRIPOS>BOND
     1    61    62    1
     2    62    55    1
     3    55    56   ar
     4    56    57   ar
     5    57    58   ar
     6    58    59   ar
     7    59    60   ar
     8    60    49    1
     9    49    50   ar
    10    50    51   ar
    11    51    52   ar
    12    52    53   ar
    13    53    48    1
    14    48    47    1
    15    47    41    1
    16    41    42   ar
    17    42    43   ar
    18    43    44   ar
    19    44    45   ar
    20    45    46   ar
    21    46    40    1
    22    36    40    1
    23    36    35    1
    24    35     1    1
    25     1     2   ar
    26     2     3   ar
    27     3     4   ar
    28     4     5   ar
    29     5     6   ar
    30     6     7   ar
    31     7    28    1
    32    28    29   ar
    33    29    30   ar
    34    30    31   ar
    35    31    32    1
    36    31    33   ar
    37    33    34   ar
    38     7     8   ar
    39     8    10    1
    40    10    11   ar
    41    11    12   ar
    42    12    13   ar
    43    13    18    1
    44    18    19    1
    45    19    20    1
    46    20    21    1
    47    21    22    1
    48    22    23    1
    49    23    24    1
    50    24    25    1
    51    24    26    1
    52    26    27    1
    53    13    14   ar
    54    14    15    1
    55    14    16   ar
    56    16    17    1
    57     8     9   ar
    58    36    37    1
    59    37    38   ar
    60    37    39   ar
    61    53    54   ar
    62    60    55   ar
    63    54    49   ar
    64    46    41   ar
    65     9     1   ar
    66     9     5   ar
    67    34    28   ar
    68    16    10   ar
    69    27    21    1
@<TRIPOS>MOLECULE
*****
 62 69 0 0 0
SMALL
GASTEIGER

@<TRIPOS>ATOM
      1 C         140.6781  144.6026  158.1736 C.ar    1  UNL1        0.2284
      2 N         139.7393  145.7714  158.2206 N.ar    1  UNL1       -0.1893
      3 C         139.6756  146.7291  157.0679 C.ar    1  UNL1        0.2020
      4 N         140.5508  146.5178  155.8681 N.ar    1  UNL1       -0.2171
      5 C         141.4897  145.3490  155.8211 C.ar    1  UNL1        0.1169
      6 S         142.4661  144.8871  154.7803 S.2     1  UNL1       -0.0678
      7 C         143.1332  143.6439  155.2898 C.ar    1  UNL1        0.0310
      8 C         142.5691  143.3375  156.6455 C.ar    1  UNL1        0.0122
      9 C         141.5533  144.3913  156.9738 C.ar    1  UNL1        0.0775
     10 C         142.9533  142.1805  157.5194 C.ar    1  UNL1       -0.0023
     11 C         143.8212  142.4048  158.7221 C.ar    1  UNL1        0.0029
     12 C         144.2054  141.2479  159.5960 C.ar    1  UNL1        0.0378
     13 C         143.7217  139.8666  159.2672 C.ar    1  UNL1        0.1487
     14 C         142.8538  139.6423  158.0645 C.ar    1  UNL1        0.0876
     15 CL        142.3701  138.2610  157.7357 Cl      1  UNL1       -0.0794
     16 C         142.4696  140.7992  157.1906 C.ar    1  UNL1       -0.0083
     17 C         141.6017  140.5749  155.9879 C.3     1  UNL1        0.0320
     18 O         144.1059  138.7096  160.1411 O.3     1  UNL1       -0.4731
     19 C         143.2219  138.3071  161.2842 C.3     1  UNL1        0.2227
     20 C         143.6639  138.5522  162.6965 C.3     1  UNL1        0.1201
     21 N         143.7772  139.9555  163.2141 N.3     1  UNL1       -0.2672
     22 C         142.5594  140.6675  163.7239 C.3     1  UNL1        0.0898
     23 C         142.6727  142.0708  164.2415 C.3     1  UNL1        0.0897
     24 N         144.0038  142.7621  164.2494 N.3     1  UNL1       -0.2691
     25 C         144.1171  144.1654  164.7670 C.3     1  UNL1        0.0897
     26 C         145.2216  142.0502  163.7395 C.3     1  UNL1        0.0897
     27 C         145.1084  140.6469  163.2219 C.3     1  UNL1        0.0898
     28 C         144.1806  142.8471  154.5699 C.ar    1  UNL1        0.0062
     29 C         143.8250  142.0956  153.3215 C.ar    1  UNL1        0.0028
     30 C         144.8723  141.2989  152.6017 C.ar    1  UNL1        0.0297
     31 C         146.2753  141.2536  153.1303 C.ar    1  UNL1        0.1401
     32 F         147.3227  140.4568  152.4105 F       1  UNL1       -0.2042
     33 C         146.6310  142.0051  154.3788 C.ar    1  UNL1        0.0297
     34 C         145.5836  142.8018  155.0986 C.ar    1  UNL1        0.0028
     35 O         140.7418  143.6448  159.3264 O.3     1  UNL1       -0.4578
     36 C         139.6722  143.6645  160.3777 C.3     1  UNL1        0.2079
     37 C         139.8022  144.5746  161.5630 C.2     1  UNL1        0.0904
     38 O         138.9467  145.8026  161.6632 O.co2   1  UNL1       -0.5455
     39 O         140.7878  144.2567  162.6482 O.co2   1  UNL1       -0.5455
     40 C         138.4725  142.7742  160.2438 C.3     1  UNL1        0.0789
     41 C         138.0690  140.5951  161.5999 C.ar    1  UNL1        0.1352
     42 C         138.2174  139.1096  161.7458 C.ar    1  UNL1        0.0366
     43 C         138.9178  138.3177  160.6816 C.ar    1  UNL1        0.0031
     44 C         139.4697  139.0113  159.4715 C.ar    1  UNL1       -0.0001
     45 C         139.3213  140.4968  159.3256 C.ar    1  UNL1       -0.0011
     46 C         138.6209  141.2887  160.3897 C.ar    1  UNL1        0.0158
     47 O         137.3686  141.3869  162.6640 O.3     1  UNL1       -0.4693
     48 C         138.1649  142.0784  163.7306 C.3     1  UNL1        0.2509
     49 C         139.9333  141.2152  167.1771 C.ar    1  UNL1        0.1649
     50 N         139.4276  139.8231  167.4143 N.ar    1  UNL1       -0.2249
     51 C         138.5010  139.1827  166.4236 C.ar    1  UNL1        0.1019
     52 C         138.0801  139.9345  165.1957 C.ar    1  UNL1        0.0391
     53 C         138.5858  141.3266  164.9585 C.ar    1  UNL1        0.1058
     54 N         139.5124  141.9669  165.9492 N.ar    1  UNL1       -0.2271
     55 C         142.3049  141.4557  168.2102 C.ar    1  UNL1        0.1416
     56 C         143.2315  142.0960  169.2009 C.ar    1  UNL1        0.0370
     57 C         142.7130  143.1362  170.1490 C.ar    1  UNL1        0.0031
     58 C         141.2679  143.5361  170.1066 C.ar    1  UNL1        0.0003
     59 C         140.3413  142.8957  169.1159 C.ar    1  UNL1        0.0061
     60 C         140.8598  141.8555  168.1677 C.ar    1  UNL1        0.0697
     61 C         142.9204  138.9839  167.6991 C.3     1  UNL1        0.2525
     62 O         142.8235  140.4154  167.2620 O.3     1  UNL1       -0.4713
@<TRIPOS>UNITY_ATOM_ATTR
38 1
charge -1
@<TRIPOS>BOND
     1    61    62    1
     2    62    55    1
     3    55    56   ar
     4    56    57   ar
     5    57    58   ar
     6    58    59   ar
     7    59    60   ar
     8    60    49    1
     9    49    50   ar
    10    50    51   ar
    11    51    52   ar
    12    52    53   ar
    13    53    48    1
    14    48    47    1
    15    47    41    1
    16    41    42   ar
    17    42    43   ar
    18    43    44   ar
    19    44    45   ar
    20    45    46   ar
    21    46    40    1
    22    36    40    1
    23    36    35    1
    24    35     1    1
    25     1     2   ar
    26     2     3   ar
    27     3     4   ar
    28     4     5   ar
    29     5     6   ar
    30     6     7   ar
    31     7    28    1
    32    28    29   ar
    33    29    30   ar
    34    30    31   ar
    35    31    32    1
    36    31    33   ar
    37    33    34   ar
    38     7     8   ar
    39     8    10    1
    40    10    11   ar
    41    11    12   ar
    42    12    13   ar
    43    13    18    1
    44    18    19    1
    45    19    20    1
    46    20    21    1
    47    21    22    1
    48    22    23    1
    49    23    24    1
    50    24    25    1
    51    24    26    1
    52    26    27    1
    53    13    14   ar
    54    14    15    1
    55    14    16   ar
    56    16    17    1
    57     8     9   ar
    58    36    37    1
    59    37    38   ar
    60    37    39   ar
    61    53    54   ar
    62    60    55   ar
    63    54    49   ar
    64    46    41   ar
    65     9     1   ar
    66     9     5   ar
    67    34    28   ar
    68    16    10   ar
    69    27    21    1
@<TRIPOS>MOLECULE
*****
 62 69 0 0 0
SMALL
GASTEIGER

@<TRIPOS>ATOM
      1 C         143.9112  141.4289  157.7476 C.ar    1  UNL1        0.2284
      2 N         144.9227  142.4666  157.3604 N.ar    1  UNL1       -0.1893
      3 C         145.8789  142.1991  156.2361 C.ar    1  UNL1        0.2020
      4 N         145.8235  140.8939  155.4989 N.ar    1  UNL1       -0.2171
      5 C         144.8119  139.8562  155.8861 C.ar    1  UNL1        0.1169
      6 S         144.5215  138.4871  155.3465 S.2     1  UNL1       -0.0678
      7 C         143.3859  137.9084  156.1374 C.ar    1  UNL1        0.0310
      8 C         142.9744  138.9199  157.1658 C.ar    1  UNL1        0.0122
      9 C         143.8558  140.1237  157.0104 C.ar    1  UNL1        0.0775
     10 C         141.8747  138.7564  158.1727 C.ar    1  UNL1       -0.0023
     11 C         140.4741  139.1672  157.8270 C.ar    1  UNL1        0.0029
     12 C         139.3743  139.0037  158.8338 C.ar    1  UNL1        0.0378
     13 C         139.6752  138.4293  160.1864 C.ar    1  UNL1        0.1487
     14 C         141.0758  138.0184  160.5321 C.ar    1  UNL1        0.0876
     15 CL        141.3767  137.4440  161.8847 Cl      1  UNL1       -0.0794
     16 C         142.1756  138.1819  159.5253 C.ar    1  UNL1       -0.0083
     17 C         143.5762  137.7711  159.8710 C.3     1  UNL1        0.0320
     18 O         138.5755  138.2657  161.1933 O.3     1  UNL1       -0.4731
     19 C         137.8825  139.4740  161.7499 C.3     1  UNL1        0.2227
     20 C         138.2526  139.9917  163.1082 C.3     1  UNL1        0.1201
     21 N         139.6238  139.7363  163.6601 N.3     1  UNL1       -0.2672
     22 C         140.8137  140.4258  163.0613 C.3     1  UNL1        0.0898
     23 C         142.1849  140.1704  163.6133 C.3     1  UNL1        0.0897
     24 N         142.3661  139.2255  164.7641 N.3     1  UNL1       -0.2691
     25 C         143.7373  138.9701  165.3160 C.3     1  UNL1        0.0897
     26 C         141.1762  138.5360  165.3628 C.3     1  UNL1        0.0897
     27 C         139.8050  138.7914  164.8109 C.3     1  UNL1        0.0898
     28 C         142.7699  136.5557  155.9353 C.ar    1  UNL1        0.0062
     29 C         143.2715  135.3787  156.7182 C.ar    1  UNL1        0.0028
     30 C         142.6555  134.0260  156.5161 C.ar    1  UNL1        0.0297
     31 C         141.5378  133.8505  155.5311 C.ar    1  UNL1        0.1401
     32 F         140.9218  132.4978  155.3291 F       1  UNL1       -0.2042
     33 C         141.0362  135.0275  154.7483 C.ar    1  UNL1        0.0297
     34 C         141.6522  136.3801  154.9504 C.ar    1  UNL1        0.0028
     35 O         142.9550  141.6964  158.8720 O.3     1  UNL1       -0.4578
     36 C         142.4295  143.0835  159.0957 C.3     1  UNL1        0.2079
     37 C         142.7652  143.8178  160.3599 C.2     1  UNL1        0.0904
     38 O         143.9324  143.3800  161.1942 O.co2   1  UNL1       -0.5455
     39 O         141.9337  144.9899  160.7898 O.co2   1  UNL1       -0.5455
     40 C         141.5685  143.7362  158.0553 C.3     1  UNL1        0.0789
     41 C         139.0960  143.0238  158.4157 C.ar    1  UNL1        0.1352
     42 C         137.8586  142.3326  157.9249 C.ar    1  UNL1        0.0366
     43 C         137.8561  141.6624  156.5829 C.ar    1  UNL1        0.0031
     44 C         139.0910  141.6835  155.7318 C.ar    1  UNL1       -0.0001
     45 C         140.3285  142.3748  156.2226 C.ar    1  UNL1       -0.0011
     46 C         140.3310  143.0449  157.5645 C.ar    1  UNL1        0.0158
     47 O         139.0986  143.6940  159.7577 O.3     1  UNL1       -0.4693
     48 C         138.3269  143.0956  160.8962 C.3     1  UNL1        0.2509
     49 C         140.3623  143.8016  164.2292 C.ar    1  UNL1        0.1649
     50 N         139.2691  144.2956  165.1297 N.ar    1  UNL1       -0.2249
     51 C         137.8619  144.3895  164.6191 C.ar    1  UNL1        0.1019
     52 C         137.5478  143.9895  163.2079 C.ar    1  UNL1        0.0391
     53 C         138.6410  143.4956  162.3075 C.ar    1  UNL1        0.1058
     54 N         140.0483  143.4017  162.8181 N.ar    1  UNL1       -0.2271
     55 C         142.1033  142.7533  165.8478 C.ar    1  UNL1        0.1416
     56 C         143.5106  142.6593  166.3584 C.ar    1  UNL1        0.0370
     57 C         144.5842  143.5199  165.7611 C.ar    1  UNL1        0.0031
     58 C         144.2505  144.4743  164.6532 C.ar    1  UNL1        0.0003
     59 C         142.8432  144.5683  164.1425 C.ar    1  UNL1        0.0061
     60 C         141.7696  143.7077  164.7399 C.ar    1  UNL1        0.0697
     61 C         140.6312  142.0780  167.8793 C.3     1  UNL1        0.2525
     62 O         141.0297  141.8927  166.4452 O.3     1  UNL1       -0.4713
@<TRIPOS>UNITY_ATOM_ATTR
38 1
charge -1
@<TRIPOS>BOND
     1    61    62    1
     2    62    55    1
     3    55    56   ar
     4    56    57   ar
     5    57    58   ar
     6    58    59   ar
     7    59    60   ar
     8    60    49    1
     9    49    50   ar
    10    50    51   ar
    11    51    52   ar
    12    52    53   ar
    13    53    48    1
    14    48    47    1
    15    47    41    1
    16    41    42   ar
    17    42    43   ar
    18    43    44   ar
    19    44    45   ar
    20    45    46   ar
    21    46    40    1
    22    36    40    1
    23    36    35    1
    24    35     1    1
    25     1     2   ar
    26     2     3   ar
    27     3     4   ar
    28     4     5   ar
    29     5     6   ar
    30     6     7   ar
    31     7    28    1
    32    28    29   ar
    33    29    30   ar
    34    30    31   ar
    35    31    32    1
    36    31    33   ar
    37    33    34   ar
    38     7     8   ar
    39     8    10    1
    40    10    11   ar
    41    11    12   ar
    42    12    13   ar
    43    13    18    1
    44    18    19    1
    45    19    20    1
    46    20    21    1
    47    21    22    1
    48    22    23    1
    49    23    24    1
    50    24    25    1
    51    24    26    1
    52    26    27    1
    53    13    14   ar
    54    14    15    1
    55    14    16   ar
    56    16    17    1
    57     8     9   ar
    58    36    37    1
    59    37    38   ar
    60    37    39   ar
    61    53    54   ar
    62    60    55   ar
    63    54    49   ar
    64    46    41   ar
    65     9     1   ar
    66     9     5   ar
    67    34    28   ar
    68    16    10   ar
    69    27    21    1
@<TRIPOS>MOLECULE
*****
 62 69 0 0 0
SMALL
GASTEIGER

@<TRIPOS>ATOM
      1 C         144.3334  141.7693  158.4553 C.ar    1  UNL1        0.2284
      2 N         145.4080  142.8069  158.3186 N.ar    1  UNL1       -0.1893
      3 C         146.4023  142.7138  157.1993 C.ar    1  UNL1        0.2020
      4 N         146.3219  141.5832  156.2168 N.ar    1  UNL1       -0.2171
      5 C         145.2474  140.5457  156.3535 C.ar    1  UNL1        0.1169
      6 S         144.9204  139.3265  155.5433 S.2     1  UNL1       -0.0678
      7 C         143.7241  138.6659  156.1617 C.ar    1  UNL1        0.0310
      8 C         143.3116  139.4770  157.3542 C.ar    1  UNL1        0.0122
      9 C         144.2531  140.6387  157.4727 C.ar    1  UNL1        0.0775
     10 C         142.1599  139.1787  158.2678 C.ar    1  UNL1       -0.0023
     11 C         142.3758  138.3538  159.5019 C.ar    1  UNL1        0.0029
     12 C         141.2242  138.0554  160.4155 C.ar    1  UNL1        0.0378
     13 C         139.8567  138.5820  160.0950 C.ar    1  UNL1        0.1487
     14 C         139.6408  139.4068  158.8609 C.ar    1  UNL1        0.0876
     15 CL        138.2734  139.9334  158.5404 Cl      1  UNL1       -0.0794
     16 C         140.7924  139.7052  157.9473 C.ar    1  UNL1       -0.0083
     17 C         140.5766  140.5301  156.7132 C.3     1  UNL1        0.0320
     18 O         138.7050  138.2837  161.0086 O.3     1  UNL1       -0.4731
     19 C         138.1075  139.3770  161.8438 C.3     1  UNL1        0.2227
     20 C         138.2723  139.3573  163.3346 C.3     1  UNL1        0.1201
     21 N         139.6353  139.1837  163.9363 N.3     1  UNL1       -0.2672
     22 C         140.2065  137.8084  164.1154 C.3     1  UNL1        0.0898
     23 C         141.5695  137.6348  164.7170 C.3     1  UNL1        0.0897
     24 N         142.3614  138.8366  165.1397 N.3     1  UNL1       -0.2691
     25 C         143.7244  138.6630  165.7413 C.3     1  UNL1        0.0897
     26 C         141.7902  140.2119  164.9605 C.3     1  UNL1        0.0897
     27 C         140.4272  140.3855  164.3589 C.3     1  UNL1        0.0898
     28 C         143.0573  137.4141  155.6734 C.ar    1  UNL1        0.0062
     29 C         141.7179  137.4906  155.0024 C.ar    1  UNL1        0.0028
     30 C         141.0512  136.2388  154.5141 C.ar    1  UNL1        0.0297
     31 C         141.7238  134.9106  154.6967 C.ar    1  UNL1        0.1401
     32 F         141.0570  133.6588  154.2084 F       1  UNL1       -0.2042
     33 C         143.0632  134.8341  155.3677 C.ar    1  UNL1        0.0297
     34 C         143.7299  136.0859  155.8560 C.ar    1  UNL1        0.0028
     35 O         143.3391  141.8623  159.5745 O.3     1  UNL1       -0.4578
     36 C         143.7783  142.3279  160.9312 C.3     1  UNL1        0.2079
     37 C         144.4556  141.3729  161.8689 C.2     1  UNL1        0.0904
     38 O         145.7475  141.7573  162.5270 O.co2   1  UNL1       -0.5455
     39 O         143.8410  140.0334  162.1484 O.co2   1  UNL1       -0.5455
     40 C         143.5401  143.7483  161.3501 C.3     1  UNL1        0.0789
     41 C         141.2996  144.9575  160.8323 C.ar    1  UNL1        0.1352
     42 C         139.9297  145.3936  161.2602 C.ar    1  UNL1        0.0366
     43 C         139.4305  145.0567  162.6341 C.ar    1  UNL1        0.0031
     44 C         140.3011  144.2837  163.5798 C.ar    1  UNL1       -0.0001
     45 C         141.6709  143.8476  163.1518 C.ar    1  UNL1       -0.0011
     46 C         142.1702  144.1845  161.7781 C.ar    1  UNL1        0.0158
     47 O         141.7989  145.2944  159.4585 O.3     1  UNL1       -0.4693
     48 C         141.4306  144.4255  158.2927 C.3     1  UNL1        0.2509
     49 C         139.2861  146.7676  155.9124 C.ar    1  UNL1        0.1649
     50 N         138.2853  145.7871  155.3767 N.ar    1  UNL1       -0.2249
     51 C         138.3330  144.3527  155.8129 C.ar    1  UNL1        0.1019
     52 C         139.3814  143.8988  156.7849 C.ar    1  UNL1        0.0391
     53 C         140.3821  144.8793  157.3207 C.ar    1  UNL1        0.1058
     54 N         140.3345  146.3137  156.8844 N.ar    1  UNL1       -0.2271
     55 C         138.7389  149.2564  156.4188 C.ar    1  UNL1        0.1416
     56 C         138.6913  150.6907  155.9825 C.ar    1  UNL1        0.0370
     57 C         139.1432  151.0707  154.6036 C.ar    1  UNL1        0.0031
     58 C         139.6428  150.0163  153.6610 C.ar    1  UNL1        0.0003
     59 C         139.6904  148.5819  154.0973 C.ar    1  UNL1        0.0061
     60 C         139.2385  148.2020  155.4762 C.ar    1  UNL1        0.0697
     61 C         137.7250  149.9201  158.7169 C.3     1  UNL1        0.2525
     62 O         138.2870  148.8765  157.7977 O.3     1  UNL1       -0.4713
@<TRIPOS>UNITY_ATOM_ATTR
38 1
charge -1
@<TRIPOS>BOND
     1    61    62    1
     2    62    55    1
     3    55    56   ar
     4    56    57   ar
     5    57    58   ar
     6    58    59   ar
     7    59    60   ar
     8    60    49    1
     9    49    50   ar
    10    50    51   ar
    11    51    52   ar
    12    52    53   ar
    13    53    48    1
    14    48    47    1
    15    47    41    1
    16    41    42   ar
    17    42    43   ar
    18    43    44   ar
    19    44    45   ar
    20    45    46   ar
    21    46    40    1
    22    36    40    1
    23    36    35    1
    24    35     1    1
    25     1     2   ar
    26     2     3   ar
    27     3     4   ar
    28     4     5   ar
    29     5     6   ar
    30     6     7   ar
    31     7    28    1
    32    28    29   ar
    33    29    30   ar
    34    30    31   ar
    35    31    32    1
    36    31    33   ar
    37    33    34   ar
    38     7     8   ar
    39     8    10    1
    40    10    11   ar
    41    11    12   ar
    42    12    13   ar
    43    13    18    1
    44    18    19    1
    45    19    20    1
    46    20    21    1
    47    21    22    1
    48    22    23    1
    49    23    24    1
    50    24    25    1
    51    24    26    1
    52    26    27    1
    53    13    14   ar
    54    14    15    1
    55    14    16   ar
    56    16    17    1
    57     8     9   ar
    58    36    37    1
    59    37    38   ar
    60    37    39   ar
    61    53    54   ar
    62    60    55   ar
    63    54    49   ar
    64    46    41   ar
    65     9     1   ar
    66     9     5   ar
    67    34    28   ar
    68    16    10   ar
    69    27    21    1
