@<TRIPOS>MOLECULE
*****
 33 37 0 0 0
SMALL
GASTEIGER

@<TRIPOS>ATOM
      1 C         139.7848  144.6641  162.4780 C.ar    1  UNL1        0.2224
      2 N         140.6394  145.1411  163.6147 N.ar    1  UNL1       -0.1127
      3 N         140.5588  144.1237  164.7139 N.ar    1  UNL1       -0.1273
      4 C         139.6544  143.0178  164.2565 C.ar    1  UNL1        0.1704
      5 N         139.1761  143.3519  162.8746 N.ar    1  UNL1       -0.2796
      6 C         138.2560  142.5661  161.9880 C.3     1  UNL1        0.1574
      7 C         137.5868  141.2524  162.2643 C.3     1  UNL1        0.2299
      8 O         137.6727  140.3999  163.4955 O.3     1  UNL1       -0.4733
      9 C         138.4487  140.6505  164.7545 C.ar    1  UNL1        0.1415
     10 C         138.2583  139.5410  165.7458 C.ar    1  UNL1        0.0370
     11 C         138.9498  139.5965  167.0757 C.ar    1  UNL1        0.0031
     12 C         139.8317  140.7616  167.4143 C.ar    1  UNL1        0.0004
     13 C         140.0222  141.8712  166.4231 C.ar    1  UNL1        0.0061
     14 C         139.3307  141.8156  165.0932 C.ar    1  UNL1        0.0699
     15 C         140.5233  140.8172  168.7443 C.ar    1  UNL1        0.0031
     16 C         141.6811  139.9062  169.0262 C.ar    1  UNL1        0.0207
     17 C         142.3726  139.9617  170.3562 C.ar    1  UNL1        0.0989
     18 N         141.9062  140.9283  171.4042 N.ar    1  UNL1       -0.2423
     19 C         140.7483  141.8393  171.1222 C.ar    1  UNL1        0.0989
     20 C         140.0569  141.7837  169.7923 C.ar    1  UNL1        0.0207
     21 N         139.5758  145.3746  161.1735 N.pl3   1  UNL1       -0.2825
     22 H         138.8517  146.0355  161.0835 H       1  UNL1        0.1551
     23 C         141.1331  145.4662  157.5244 C.ar    1  UNL1        0.1480
     24 C         142.2585  144.4855  157.6717 C.ar    1  UNL1        0.0373
     25 C         142.4896  143.8011  158.9864 C.ar    1  UNL1        0.0044
     26 C         141.5954  144.0975  160.1536 C.ar    1  UNL1        0.0149
     27 C         140.4700  145.0782  160.0063 C.ar    1  UNL1        0.0535
     28 C         140.2389  145.7625  158.6916 C.ar    1  UNL1        0.0518
     29 O         140.9019  146.1505  156.2097 O.3     1  UNL1       -0.4044
     30 F         138.1168  146.4183  155.1272 F       1  UNL1       -0.1328
     31 C         139.5094  146.2843  155.6685 C.3     1  UNL1        0.5753
     32 F         139.6248  147.7782  155.7410 F       1  UNL1       -0.1328
     33 F         139.3940  144.7906  155.5959 F       1  UNL1       -0.1328
@<TRIPOS>BOND
     1    30    31    1
     2    31    32    1
     3    31    33    1
     4    31    29    1
     5    29    23    1
     6    23    24   ar
     7    24    25   ar
     8    25    26   ar
     9    26    27   ar
    10    27    21    1
    11    21     1    1
    12     1     2   ar
    13     2     3   ar
    14     3     4   ar
    15     4     5   ar
    16     5     6    1
    17     6     7    1
    18     7     8    1
    19     8     9    1
    20     9    10   ar
    21    10    11   ar
    22    11    12   ar
    23    12    15    1
    24    15    16   ar
    25    16    17   ar
    26    17    18   ar
    27    18    19   ar
    28    19    20   ar
    29    12    13   ar
    30    13    14   ar
    31    27    28   ar
    32    28    23   ar
    33     5     1   ar
    34    14     9   ar
    35    14     4    1
    36    20    15   ar
    37    21    22    1
@<TRIPOS>MOLECULE
*****
 33 37 0 0 0
SMALL
GASTEIGER

@<TRIPOS>ATOM
      1 C         139.7821  144.5180  162.4159 C.ar    1  UNL1        0.2224
      2 N         140.6215  145.0290  163.5492 N.ar    1  UNL1       -0.1127
      3 N         140.5374  144.0378  164.6719 N.ar    1  UNL1       -0.1273
      4 C         139.6460  142.9142  164.2324 C.ar    1  UNL1        0.1704
      5 N         139.1793  143.2111  162.8382 N.ar    1  UNL1       -0.2796
      6 C         138.2740  142.3971  161.9618 C.3     1  UNL1        0.1574
      7 C         137.6120  141.0853  162.2632 C.3     1  UNL1        0.2299
      8 O         137.6917  140.2635  163.5155 O.3     1  UNL1       -0.4733
      9 C         138.4531  140.5504  164.7757 C.ar    1  UNL1        0.1415
     10 C         138.2609  139.4637  165.7916 C.ar    1  UNL1        0.0370
     11 C         138.9385  139.5568  167.1265 C.ar    1  UNL1        0.0031
     12 C         139.8082  140.7365  167.4456 C.ar    1  UNL1        0.0004
     13 C         140.0004  141.8232  166.4297 C.ar    1  UNL1        0.0061
     14 C         139.3228  141.7302  165.0947 C.ar    1  UNL1        0.0699
     15 C         140.4858  140.8295  168.7807 C.ar    1  UNL1        0.0031
     16 C         141.6221  139.9077  169.1108 C.ar    1  UNL1        0.0207
     17 C         142.2997  140.0007  170.4459 C.ar    1  UNL1        0.0989
     18 N         141.8410  141.0155  171.4507 N.ar    1  UNL1       -0.2423
     19 C         140.7046  141.9373  171.1205 C.ar    1  UNL1        0.0989
     20 C         140.0271  141.8443  169.7855 C.ar    1  UNL1        0.0207
     21 N         139.5810  145.1953  161.0927 N.pl3   1  UNL1       -0.2825
     22 H         138.8157  145.8005  160.9607 H       1  UNL1        0.1551
     23 C         142.6459  143.7428  159.0322 C.ar    1  UNL1        0.1480
     24 C         142.4751  144.4605  157.7261 C.ar    1  UNL1        0.0373
     25 C         141.3395  145.4231  157.5423 C.ar    1  UNL1        0.0044
     26 C         140.3748  145.6680  158.6645 C.ar    1  UNL1        0.0149
     27 C         140.5456  144.9503  159.9705 C.ar    1  UNL1        0.0535
     28 C         141.6813  143.9877  160.1543 C.ar    1  UNL1        0.0518
     29 O         143.7816  142.7801  159.2160 O.3     1  UNL1       -0.4044
     30 F         144.0699  141.2753  161.7952 F       1  UNL1       -0.1328
     31 C         143.9257  142.0278  160.5056 C.3     1  UNL1        0.5753
     32 F         143.0735  140.9224  159.9560 F       1  UNL1       -0.1328
     33 F         144.7780  143.1330  161.0552 F       1  UNL1       -0.1328
@<TRIPOS>BOND
     1    30    31    1
     2    31    32    1
     3    31    33    1
     4    31    29    1
     5    29    23    1
     6    23    24   ar
     7    24    25   ar
     8    25    26   ar
     9    26    27   ar
    10    27    21    1
    11    21     1    1
    12     1     2   ar
    13     2     3   ar
    14     3     4   ar
    15     4     5   ar
    16     5     6    1
    17     6     7    1
    18     7     8    1
    19     8     9    1
    20     9    10   ar
    21    10    11   ar
    22    11    12   ar
    23    12    15    1
    24    15    16   ar
    25    16    17   ar
    26    17    18   ar
    27    18    19   ar
    28    19    20   ar
    29    12    13   ar
    30    13    14   ar
    31    27    28   ar
    32    28    23   ar
    33     5     1   ar
    34    14     9   ar
    35    14     4    1
    36    20    15   ar
    37    21    22    1
@<TRIPOS>MOLECULE
*****
 33 37 0 0 0
SMALL
GASTEIGER

@<TRIPOS>ATOM
      1 C         143.1974  138.2146  162.6246 C.ar    1  UNL1        0.2224
      2 N         144.0798  138.8426  163.6623 N.ar    1  UNL1       -0.1127
      3 N         143.2225  139.2170  164.8348 N.ar    1  UNL1       -0.1273
      4 C         141.8101  138.8204  164.5216 C.ar    1  UNL1        0.1704
      5 N         141.7947  138.2009  163.1556 N.ar    1  UNL1       -0.2796
      6 C         140.6279  137.6460  162.3935 C.3     1  UNL1        0.1574
      7 C         139.1885  137.5736  162.8092 C.3     1  UNL1        0.2299
      8 O         138.5603  138.0382  164.0896 O.3     1  UNL1       -0.4733
      9 C         139.2163  138.6899  165.2707 C.ar    1  UNL1        0.1415
     10 C         138.2210  138.9973  166.3499 C.ar    1  UNL1        0.0370
     11 C         138.6721  139.6528  167.6214 C.ar    1  UNL1        0.0031
     12 C         140.1184  140.0010  167.8137 C.ar    1  UNL1        0.0004
     13 C         141.1137  139.6936  166.7345 C.ar    1  UNL1        0.0061
     14 C         140.6627  139.0380  165.4629 C.ar    1  UNL1        0.0699
     15 C         140.5694  140.6566  169.0853 C.ar    1  UNL1        0.0031
     16 C         141.7452  140.1063  169.8367 C.ar    1  UNL1        0.0207
     17 C         142.1962  140.7619  171.1083 C.ar    1  UNL1        0.0989
     18 N         141.4713  141.9677  171.6284 N.ar    1  UNL1       -0.2423
     19 C         140.2954  142.5179  170.8770 C.ar    1  UNL1        0.0989
     20 C         139.8445  141.8624  169.6055 C.ar    1  UNL1        0.0207
     21 N         143.6401  137.6921  161.2900 N.pl3   1  UNL1       -0.2825
     22 H         144.1354  136.8432  161.2334 H       1  UNL1        0.1551
     23 C         143.3517  140.6935  158.7097 C.ar    1  UNL1        0.1480
     24 C         142.7041  140.0049  157.5450 C.ar    1  UNL1        0.0373
     25 C         142.3685  138.5452  157.6287 C.ar    1  UNL1        0.0044
     26 C         142.6805  137.7744  158.8770 C.ar    1  UNL1        0.0149
     27 C         143.3281  138.4630  160.0417 C.ar    1  UNL1        0.0535
     28 C         143.6637  139.9226  159.9579 C.ar    1  UNL1        0.0518
     29 O         143.6873  142.1531  158.6259 O.3     1  UNL1       -0.4044
     30 F         146.5185  143.0156  158.1358 F       1  UNL1       -0.1328
     31 C         145.1028  142.5843  158.3809 C.3     1  UNL1        0.5753
     32 F         145.3183  142.7173  159.8594 F       1  UNL1       -0.1328
     33 F         144.8875  142.4514  156.9024 F       1  UNL1       -0.1328
@<TRIPOS>BOND
     1    30    31    1
     2    31    32    1
     3    31    33    1
     4    31    29    1
     5    29    23    1
     6    23    24   ar
     7    24    25   ar
     8    25    26   ar
     9    26    27   ar
    10    27    21    1
    11    21     1    1
    12     1     2   ar
    13     2     3   ar
    14     3     4   ar
    15     4     5   ar
    16     5     6    1
    17     6     7    1
    18     7     8    1
    19     8     9    1
    20     9    10   ar
    21    10    11   ar
    22    11    12   ar
    23    12    15    1
    24    15    16   ar
    25    16    17   ar
    26    17    18   ar
    27    18    19   ar
    28    19    20   ar
    29    12    13   ar
    30    13    14   ar
    31    27    28   ar
    32    28    23   ar
    33     5     1   ar
    34    14     9   ar
    35    14     4    1
    36    20    15   ar
    37    21    22    1
@<TRIPOS>MOLECULE
*****
 33 37 0 0 0
SMALL
GASTEIGER

@<TRIPOS>ATOM
      1 C         143.6591  138.7382  162.8689 C.ar    1  UNL1        0.2224
      2 N         144.3732  139.4690  163.9670 N.ar    1  UNL1       -0.1127
      3 N         143.3951  139.7044  165.0796 N.ar    1  UNL1       -0.1273
      4 C         142.0764  139.1190  164.6691 C.ar    1  UNL1        0.1704
      5 N         142.2397  138.5219  163.3028 N.ar    1  UNL1       -0.2796
      6 C         141.2159  137.8201  162.4605 C.3     1  UNL1        0.1574
      7 C         139.7761  137.5420  162.7765 C.3     1  UNL1        0.2299
      8 O         139.0046  137.8971  164.0129 O.3     1  UNL1       -0.4733
      9 C         139.4821  138.6180  165.2386 C.ar    1  UNL1        0.1415
     10 C         138.3834  138.7691  166.2485 C.ar    1  UNL1        0.0370
     11 C         138.6518  139.4639  167.5505 C.ar    1  UNL1        0.0031
     12 C         140.0190  140.0077  167.8425 C.ar    1  UNL1        0.0004
     13 C         141.1177  139.8566  166.8326 C.ar    1  UNL1        0.0061
     14 C         140.8493  139.1618  165.5306 C.ar    1  UNL1        0.0699
     15 C         140.2873  140.7025  169.1445 C.ar    1  UNL1        0.0031
     16 C         141.1207  140.0308  170.1953 C.ar    1  UNL1        0.0207
     17 C         141.3891  140.7256  171.4973 C.ar    1  UNL1        0.0989
     18 N         140.8240  142.0923  171.7485 N.ar    1  UNL1       -0.2423
     19 C         139.9906  142.7640  170.6977 C.ar    1  UNL1        0.0989
     20 C         139.7223  142.0691  169.3957 C.ar    1  UNL1        0.0207
     21 N         144.2591  138.3006  161.5656 N.pl3   1  UNL1       -0.2825
     22 H         145.0661  137.7367  161.5600 H       1  UNL1        0.1551
     23 C         142.5510  138.1078  157.9886 C.ar    1  UNL1        0.1480
     24 C         142.3706  139.5650  157.6817 C.ar    1  UNL1        0.0373
     25 C         142.8198  140.6007  158.6695 C.ar    1  UNL1        0.0044
     26 C         143.4493  140.1792  159.9641 C.ar    1  UNL1        0.0149
     27 C         143.6296  138.7220  160.2710 C.ar    1  UNL1        0.0535
     28 C         143.1805  137.6864  159.2832 C.ar    1  UNL1        0.0518
     29 O         142.1018  137.0722  157.0008 O.3     1  UNL1       -0.4044
     30 F         144.1057  135.2211  155.7525 F       1  UNL1       -0.1328
     31 C         143.1037  136.1467  156.3767 C.3     1  UNL1        0.5753
     32 F         143.9199  137.3262  155.9378 F       1  UNL1       -0.1328
     33 F         142.2876  134.9671  156.8156 F       1  UNL1       -0.1328
@<TRIPOS>BOND
     1    30    31    1
     2    31    32    1
     3    31    33    1
     4    31    29    1
     5    29    23    1
     6    23    24   ar
     7    24    25   ar
     8    25    26   ar
     9    26    27   ar
    10    27    21    1
    11    21     1    1
    12     1     2   ar
    13     2     3   ar
    14     3     4   ar
    15     4     5   ar
    16     5     6    1
    17     6     7    1
    18     7     8    1
    19     8     9    1
    20     9    10   ar
    21    10    11   ar
    22    11    12   ar
    23    12    15    1
    24    15    16   ar
    25    16    17   ar
    26    17    18   ar
    27    18    19   ar
    28    19    20   ar
    29    12    13   ar
    30    13    14   ar
    31    27    28   ar
    32    28    23   ar
    33     5     1   ar
    34    14     9   ar
    35    14     4    1
    36    20    15   ar
    37    21    22    1
@<TRIPOS>MOLECULE
*****
 33 37 0 0 0
SMALL
GASTEIGER

@<TRIPOS>ATOM
      1 C         143.2010  143.2701  161.8745 C.ar    1  UNL1        0.2224
      2 N         142.8875  144.2417  162.9734 N.ar    1  UNL1       -0.1127
      3 N         142.7890  143.4729  164.2577 N.ar    1  UNL1       -0.1273
      4 C         143.0416  142.0262  163.9524 C.ar    1  UNL1        0.1704
      5 N         143.2962  141.9009  162.4795 N.ar    1  UNL1       -0.2796
      6 C         143.5979  140.6652  161.6844 C.3     1  UNL1        0.1574
      7 C         143.7195  139.2497  162.1658 C.3     1  UNL1        0.2299
      8 O         143.5694  138.7204  163.5612 O.3     1  UNL1       -0.4733
      9 C         143.2606  139.4757  164.8199 C.ar    1  UNL1        0.1415
     10 C         143.1983  138.5606  166.0068 C.ar    1  UNL1        0.0370
     11 C         142.9011  139.1168  167.3678 C.ar    1  UNL1        0.0031
     12 C         142.6662  140.5880  167.5418 C.ar    1  UNL1        0.0004
     13 C         142.7285  141.5030  166.3550 C.ar    1  UNL1        0.0061
     14 C         143.0257  140.9469  164.9940 C.ar    1  UNL1        0.0699
     15 C         142.3689  141.1441  168.9029 C.ar    1  UNL1        0.0031
     16 C         141.4294  140.4194  169.8205 C.ar    1  UNL1        0.0207
     17 C         141.1322  140.9755  171.1815 C.ar    1  UNL1        0.0989
     18 N         141.7745  142.2564  171.6250 N.ar    1  UNL1       -0.2423
     19 C         142.7141  142.9812  170.7073 C.ar    1  UNL1        0.0989
     20 C         143.0113  142.4251  169.3464 C.ar    1  UNL1        0.0207
     21 N         143.3867  143.6084  160.4249 N.pl3   1  UNL1       -0.2825
     22 H         144.2873  143.7977  160.0751 H       1  UNL1        0.1551
     23 C         139.6531  143.3423  159.1062 C.ar    1  UNL1        0.1480
     24 C         139.8274  143.7580  157.6755 C.ar    1  UNL1        0.0373
     25 C         141.1883  144.1239  157.1614 C.ar    1  UNL1        0.0044
     26 C         142.3747  144.0740  158.0778 C.ar    1  UNL1        0.0149
     27 C         142.2003  143.6583  159.5085 C.ar    1  UNL1        0.0535
     28 C         140.8395  143.2924  160.0226 C.ar    1  UNL1        0.0518
     29 O         138.2922  142.9765  159.6204 O.3     1  UNL1       -0.4044
     30 F         138.0186  141.0352  161.8912 F       1  UNL1       -0.1328
     31 C         138.1554  142.0059  160.7557 C.3     1  UNL1        0.5753
     32 F         138.4771  140.8733  159.8263 F       1  UNL1       -0.1328
     33 F         137.8337  143.1384  161.6852 F       1  UNL1       -0.1328
@<TRIPOS>BOND
     1    30    31    1
     2    31    32    1
     3    31    33    1
     4    31    29    1
     5    29    23    1
     6    23    24   ar
     7    24    25   ar
     8    25    26   ar
     9    26    27   ar
    10    27    21    1
    11    21     1    1
    12     1     2   ar
    13     2     3   ar
    14     3     4   ar
    15     4     5   ar
    16     5     6    1
    17     6     7    1
    18     7     8    1
    19     8     9    1
    20     9    10   ar
    21    10    11   ar
    22    11    12   ar
    23    12    15    1
    24    15    16   ar
    25    16    17   ar
    26    17    18   ar
    27    18    19   ar
    28    19    20   ar
    29    12    13   ar
    30    13    14   ar
    31    27    28   ar
    32    28    23   ar
    33     5     1   ar
    34    14     9   ar
    35    14     4    1
    36    20    15   ar
    37    21    22    1
@<TRIPOS>MOLECULE
*****
 33 37 0 0 0
SMALL
GASTEIGER

@<TRIPOS>ATOM
      1 C         144.5712  142.6227  161.1617 C.ar    1  UNL1        0.2224
      2 N         144.3921  143.8163  162.0523 N.ar    1  UNL1       -0.1127
      3 N         143.9088  143.3306  163.3867 N.ar    1  UNL1       -0.1273
      4 C         143.7892  141.8368  163.3207 C.ar    1  UNL1        0.1704
      5 N         144.1986  141.3994  161.9455 N.ar    1  UNL1       -0.2796
      6 C         144.2515  140.0097  161.3833 C.3     1  UNL1        0.1574
      7 C         143.9081  138.7143  162.0572 C.3     1  UNL1        0.2299
      8 O         143.4270  138.4888  163.4599 O.3     1  UNL1       -0.4733
      9 C         143.1704  139.5028  164.5352 C.ar    1  UNL1        0.1415
     10 C         142.6943  138.8519  165.7999 C.ar    1  UNL1        0.0370
     11 C         142.3794  139.6910  167.0026 C.ar    1  UNL1        0.0031
     12 C         142.5406  141.1810  166.9407 C.ar    1  UNL1        0.0004
     13 C         143.0167  141.8319  165.6759 C.ar    1  UNL1        0.0061
     14 C         143.3316  140.9928  164.4732 C.ar    1  UNL1        0.0699
     15 C         142.2256  142.0201  168.1435 C.ar    1  UNL1        0.0031
     16 C         143.2638  142.2272  169.2062 C.ar    1  UNL1        0.0207
     17 C         142.9488  143.0664  170.4090 C.ar    1  UNL1        0.0989
     18 N         141.5957  143.6983  170.5491 N.ar    1  UNL1       -0.2423
     19 C         140.5575  143.4912  169.4864 C.ar    1  UNL1        0.0989
     20 C         140.8725  142.6521  168.2836 C.ar    1  UNL1        0.0207
     21 N         145.0405  142.6481  159.7372 N.pl3   1  UNL1       -0.2825
     22 H         145.9973  142.7635  159.5361 H       1  UNL1        0.1551
     23 C         141.8932  143.2801  157.4037 C.ar    1  UNL1        0.1480
     24 C         142.0751  142.1964  156.3827 C.ar    1  UNL1        0.0373
     25 C         143.2455  141.2632  156.4799 C.ar    1  UNL1        0.0044
     26 C         144.2339  141.4137  157.5980 C.ar    1  UNL1        0.0149
     27 C         144.0521  142.4975  158.6190 C.ar    1  UNL1        0.0535
     28 C         142.8817  143.4307  158.5218 C.ar    1  UNL1        0.0518
     29 O         140.7229  144.2133  157.3065 O.3     1  UNL1       -0.4044
     30 F         139.9404  145.8892  159.6686 F       1  UNL1       -0.1328
     31 C         140.3316  145.0512  158.4875 C.3     1  UNL1        0.5753
     32 F         141.1067  146.2058  157.9252 F       1  UNL1       -0.1328
     33 F         139.5566  143.8967  159.0500 F       1  UNL1       -0.1328
@<TRIPOS>BOND
     1    30    31    1
     2    31    32    1
     3    31    33    1
     4    31    29    1
     5    29    23    1
     6    23    24   ar
     7    24    25   ar
     8    25    26   ar
     9    26    27   ar
    10    27    21    1
    11    21     1    1
    12     1     2   ar
    13     2     3   ar
    14     3     4   ar
    15     4     5   ar
    16     5     6    1
    17     6     7    1
    18     7     8    1
    19     8     9    1
    20     9    10   ar
    21    10    11   ar
    22    11    12   ar
    23    12    15    1
    24    15    16   ar
    25    16    17   ar
    26    17    18   ar
    27    18    19   ar
    28    19    20   ar
    29    12    13   ar
    30    13    14   ar
    31    27    28   ar
    32    28    23   ar
    33     5     1   ar
    34    14     9   ar
    35    14     4    1
    36    20    15   ar
    37    21    22    1
@<TRIPOS>MOLECULE
*****
 33 37 0 0 0
SMALL
GASTEIGER

@<TRIPOS>ATOM
      1 C         143.0733  139.9282  162.1793 C.ar    1  UNL1        0.2224
      2 N         143.7500  140.7239  163.2558 N.ar    1  UNL1       -0.1127
      3 N         142.8794  140.6863  164.4767 N.ar    1  UNL1       -0.1273
      4 C         141.6646  139.8673  164.1547 C.ar    1  UNL1        0.1704
      5 N         141.7846  139.3988  162.7348 N.ar    1  UNL1       -0.2796
      6 C         140.8302  138.5525  161.9456 C.3     1  UNL1        0.1574
      7 C         139.5202  137.9657  162.3812 C.3     1  UNL1        0.2299
      8 O         138.8412  138.0803  163.7138 O.3     1  UNL1       -0.4733
      9 C         139.3043  138.8100  164.9399 C.ar    1  UNL1        0.1415
     10 C         138.3212  138.6713  166.0642 C.ar    1  UNL1        0.0370
     11 C         138.5946  139.3279  167.3848 C.ar    1  UNL1        0.0031
     12 C         139.8512  140.1233  167.5810 C.ar    1  UNL1        0.0004
     13 C         140.8343  140.2620  166.4567 C.ar    1  UNL1        0.0061
     14 C         140.5609  139.6053  165.1361 C.ar    1  UNL1        0.0699
     15 C         140.1246  140.7800  168.9017 C.ar    1  UNL1        0.0031
     16 C         140.0120  142.2696  169.0362 C.ar    1  UNL1        0.0207
     17 C         140.2854  142.9263  170.3568 C.ar    1  UNL1        0.0989
     18 N         140.6715  142.0932  171.5430 N.ar    1  UNL1       -0.2423
     19 C         140.7841  140.6035  171.4084 C.ar    1  UNL1        0.0989
     20 C         140.5107  139.9469  170.0878 C.ar    1  UNL1        0.0207
     21 N         143.5941  139.7016  160.7909 N.pl3   1  UNL1       -0.2825
     22 H         144.0103  138.8410  160.5556 H       1  UNL1        0.1551
     23 C         142.8871  143.2353  159.1287 C.ar    1  UNL1        0.1480
     24 C         143.2540  142.9557  157.7014 C.ar    1  UNL1        0.0373
     25 C         143.7342  141.5913  157.3040 C.ar    1  UNL1        0.0044
     26 C         143.8476  140.5067  158.3338 C.ar    1  UNL1        0.0149
     27 C         143.4807  140.7863  159.7611 C.ar    1  UNL1        0.0535
     28 C         143.0004  142.1506  160.1585 C.ar    1  UNL1        0.0518
     29 O         142.4068  144.5996  159.5261 O.3     1  UNL1       -0.4044
     30 F         139.9997  145.7909  158.1893 F       1  UNL1       -0.1328
     31 C         141.2033  145.1953  158.8578 C.3     1  UNL1        0.5753
     32 F         140.3173  144.2414  159.6029 F       1  UNL1       -0.1328
     33 F         142.0892  146.1492  158.1126 F       1  UNL1       -0.1328
@<TRIPOS>BOND
     1    30    31    1
     2    31    32    1
     3    31    33    1
     4    31    29    1
     5    29    23    1
     6    23    24   ar
     7    24    25   ar
     8    25    26   ar
     9    26    27   ar
    10    27    21    1
    11    21     1    1
    12     1     2   ar
    13     2     3   ar
    14     3     4   ar
    15     4     5   ar
    16     5     6    1
    17     6     7    1
    18     7     8    1
    19     8     9    1
    20     9    10   ar
    21    10    11   ar
    22    11    12   ar
    23    12    15    1
    24    15    16   ar
    25    16    17   ar
    26    17    18   ar
    27    18    19   ar
    28    19    20   ar
    29    12    13   ar
    30    13    14   ar
    31    27    28   ar
    32    28    23   ar
    33     5     1   ar
    34    14     9   ar
    35    14     4    1
    36    20    15   ar
    37    21    22    1
@<TRIPOS>MOLECULE
*****
 33 37 0 0 0
SMALL
GASTEIGER

@<TRIPOS>ATOM
      1 C         138.2090  140.2072  162.2339 C.ar    1  UNL1        0.2224
      2 N         137.5659  141.0060  163.3285 N.ar    1  UNL1       -0.1127
      3 N         138.4316  140.9009  164.5490 N.ar    1  UNL1       -0.1273
      4 C         139.6097  140.0370  164.2086 C.ar    1  UNL1        0.1704
      5 N         139.4721  139.6083  162.7778 N.ar    1  UNL1       -0.2796
      6 C         140.3898  138.7397  161.9694 C.3     1  UNL1        0.1574
      7 C         141.6716  138.0854  162.3921 C.3     1  UNL1        0.2299
      8 O         142.3524  138.1380  163.7277 O.3     1  UNL1       -0.4733
      9 C         141.9195  138.8579  164.9705 C.ar    1  UNL1        0.1415
     10 C         142.8932  138.6491  166.0921 C.ar    1  UNL1        0.0370
     11 C         142.6464  139.2854  167.4278 C.ar    1  UNL1        0.0031
     12 C         141.4257  140.1306  167.6418 C.ar    1  UNL1        0.0004
     13 C         140.4520  140.3394  166.5202 C.ar    1  UNL1        0.0061
     14 C         140.6988  139.7030  165.1845 C.ar    1  UNL1        0.0699
     15 C         141.1789  140.7669  168.9776 C.ar    1  UNL1        0.0031
     16 C         140.1510  141.8508  169.1135 C.ar    1  UNL1        0.0207
     17 C         139.9041  142.4871  170.4493 C.ar    1  UNL1        0.0989
     18 N         140.6852  142.0395  171.6491 N.ar    1  UNL1       -0.2423
     19 C         141.7132  140.9556  171.5131 C.ar    1  UNL1        0.0989
     20 C         141.9600  140.3193  170.1774 C.ar    1  UNL1        0.0207
     21 N         137.6816  140.0371  160.8400 N.pl3   1  UNL1       -0.2825
     22 H         136.9932  139.3584  160.6535 H       1  UNL1        0.1551
     23 C         139.2013  143.1566  158.9141 C.ar    1  UNL1        0.1480
     24 C         139.2456  142.6292  157.5106 C.ar    1  UNL1        0.0373
     25 C         138.7684  141.2378  157.2169 C.ar    1  UNL1        0.0044
     26 C         138.2471  140.3738  158.3267 C.ar    1  UNL1        0.0149
     27 C         138.2029  140.9011  159.7302 C.ar    1  UNL1        0.0535
     28 C         138.6800  142.2926  160.0239 C.ar    1  UNL1        0.0518
     29 O         139.6785  144.5481  159.2079 O.3     1  UNL1       -0.4044
     30 F         141.7338  145.0095  161.3439 F       1  UNL1       -0.1328
     31 C         140.7061  144.7788  160.2759 C.3     1  UNL1        0.5753
     32 F         141.6821  143.9257  159.5211 F       1  UNL1       -0.1328
     33 F         139.7301  145.6319  161.0307 F       1  UNL1       -0.1328
@<TRIPOS>BOND
     1    30    31    1
     2    31    32    1
     3    31    33    1
     4    31    29    1
     5    29    23    1
     6    23    24   ar
     7    24    25   ar
     8    25    26   ar
     9    26    27   ar
    10    27    21    1
    11    21     1    1
    12     1     2   ar
    13     2     3   ar
    14     3     4   ar
    15     4     5   ar
    16     5     6    1
    17     6     7    1
    18     7     8    1
    19     8     9    1
    20     9    10   ar
    21    10    11   ar
    22    11    12   ar
    23    12    15    1
    24    15    16   ar
    25    16    17   ar
    26    17    18   ar
    27    18    19   ar
    28    19    20   ar
    29    12    13   ar
    30    13    14   ar
    31    27    28   ar
    32    28    23   ar
    33     5     1   ar
    34    14     9   ar
    35    14     4    1
    36    20    15   ar
    37    21    22    1
@<TRIPOS>MOLECULE
*****
 33 37 0 0 0
SMALL
GASTEIGER

@<TRIPOS>ATOM
      1 C         140.0121  144.1676  164.1620 C.ar    1  UNL1        0.2224
      2 N         138.8027  144.7281  163.4742 N.ar    1  UNL1       -0.1127
      3 N         139.0873  144.7765  162.0022 N.ar    1  UNL1       -0.1273
      4 C         140.4727  144.2459  161.7804 C.ar    1  UNL1        0.1704
      5 N         141.0441  143.8696  163.1152 N.ar    1  UNL1       -0.2796
      6 C         142.3942  143.2943  163.4260 C.3     1  UNL1        0.1574
      7 C         143.5061  142.9533  162.4787 C.3     1  UNL1        0.2299
      8 O         143.5426  143.1033  160.9866 O.3     1  UNL1       -0.4733
      9 C         142.4762  143.6314  160.0734 C.ar    1  UNL1        0.1415
     10 C         142.9217  143.6110  158.6412 C.ar    1  UNL1        0.0370
     11 C         142.0010  144.0990  157.5624 C.ar    1  UNL1        0.0031
     12 C         140.6347  144.6075  157.9156 C.ar    1  UNL1        0.0004
     13 C         140.1892  144.6279  159.3477 C.ar    1  UNL1        0.0061
     14 C         141.1100  144.1399  160.4266 C.ar    1  UNL1        0.0699
     15 C         139.7139  145.0955  156.8366 C.ar    1  UNL1        0.0031
     16 C         138.8060  144.1312  156.1326 C.ar    1  UNL1        0.0207
     17 C         137.8852  144.6192  155.0537 C.ar    1  UNL1        0.0989
     18 N         137.8725  146.0716  154.6788 N.ar    1  UNL1       -0.2423
     19 C         138.7805  147.0359  155.3829 C.ar    1  UNL1        0.0989
     20 C         139.7012  146.5478  156.4618 C.ar    1  UNL1        0.0207
     21 N         140.1629  143.9444  165.6377 N.pl3   1  UNL1       -0.2825
     22 H         140.2904  144.7117  166.2411 H       1  UNL1        0.1551
     23 C         139.1354  140.1476  166.1656 C.ar    1  UNL1        0.1480
     24 C         140.0321  139.7672  167.3062 C.ar    1  UNL1        0.0373
     25 C         140.9725  140.7792  167.8907 C.ar    1  UNL1        0.0044
     26 C         141.0161  142.1716  167.3345 C.ar    1  UNL1        0.0149
     27 C         140.1193  142.5520  166.1939 C.ar    1  UNL1        0.0535
     28 C         139.1789  141.5400  165.6094 C.ar    1  UNL1        0.0518
     29 O         138.1950  139.1356  165.5811 O.3     1  UNL1       -0.4044
     30 F         137.6056  136.5993  167.0712 F       1  UNL1       -0.1328
     31 C         137.9003  137.8675  166.3261 C.3     1  UNL1        0.5753
     32 F         137.0800  138.6398  167.3164 F       1  UNL1       -0.1328
     33 F         138.7206  137.0951  165.3359 F       1  UNL1       -0.1328
@<TRIPOS>BOND
     1    30    31    1
     2    31    32    1
     3    31    33    1
     4    31    29    1
     5    29    23    1
     6    23    24   ar
     7    24    25   ar
     8    25    26   ar
     9    26    27   ar
    10    27    21    1
    11    21     1    1
    12     1     2   ar
    13     2     3   ar
    14     3     4   ar
    15     4     5   ar
    16     5     6    1
    17     6     7    1
    18     7     8    1
    19     8     9    1
    20     9    10   ar
    21    10    11   ar
    22    11    12   ar
    23    12    15    1
    24    15    16   ar
    25    16    17   ar
    26    17    18   ar
    27    18    19   ar
    28    19    20   ar
    29    12    13   ar
    30    13    14   ar
    31    27    28   ar
    32    28    23   ar
    33     5     1   ar
    34    14     9   ar
    35    14     4    1
    36    20    15   ar
    37    21    22    1
