@<TRIPOS>MOLECULE
*****
 34 36 0 0 0
SMALL
GASTEIGER

@<TRIPOS>ATOM
      1 C         140.9247  140.4150  168.5984 C.ar    1  UNL1        0.0764
      2 C         140.0867  139.9001  167.4658 C.ar    1  UNL1        0.0522
      3 C         138.6816  139.4411  167.7208 C.ar    1  UNL1        0.1515
      4 N         138.1144  139.4970  169.1083 N.ar    1  UNL1       -0.1329
      5 N         138.9523  140.0119  170.2408 N.ar    1  UNL1       -0.1409
      6 C         140.3575  140.4709  169.9859 C.ar    1  UNL1        0.1691
      7 C         141.1954  140.9858  171.1185 C.2     1  UNL1        0.2635
      8 N         142.4987  140.3212  171.4497 N.am    1  UNL1       -0.3240
      9 O         140.7300  142.1652  171.9198 O.2     1  UNL1       -0.2686
     10 H         142.8042  139.5471  170.9237 H       1  UNL1        0.1453
     11 H         143.0487  140.6591  172.1930 H       1  UNL1        0.1453
     12 N         142.3297  140.8740  168.3434 N.pl3   1  UNL1       -0.2964
     13 H         142.9604  140.9688  169.0935 H       1  UNL1        0.1537
     14 C         143.6625  141.8178  164.1502 C.ar    1  UNL1        0.1917
     15 C         143.0821  142.8982  165.0138 C.ar    1  UNL1        0.0446
     16 C         142.6378  142.5836  166.4115 C.ar    1  UNL1        0.0377
     17 C         142.7740  141.1886  166.9457 C.ar    1  UNL1        0.1355
     18 N         143.3544  140.1082  166.0821 N.ar    1  UNL1       -0.1940
     19 C         143.7987  140.4228  164.6844 C.ar    1  UNL1        0.2612
     20 C         144.5223  143.5284  162.3939 C.3     1  UNL1        0.2527
     21 O         144.1068  142.1324  162.7525 O.3     1  UNL1       -0.4667
     22 O         144.3792  139.3423  163.8208 O.3     1  UNL1       -0.4541
     23 C         143.5078  138.6194  162.8369 C.3     1  UNL1        0.2543
     24 N         137.8436  138.9262  166.5882 N.pl3   1  UNL1       -0.3170
     25 H         136.9092  138.6607  166.7483 H       1  UNL1        0.1482
     26 C         138.4293  138.8158  165.2117 C.3     1  UNL1        0.0845
     27 C         139.1711  137.5756  164.8095 C.3     1  UNL1        0.0209
     28 C         139.7568  137.4652  163.4330 C.3     1  UNL1        0.0018
     29 C         139.6008  138.5950  162.4587 C.3     1  UNL1        0.0015
     30 C         138.8590  139.8351  162.8609 C.3     1  UNL1        0.0172
     31 C         138.2733  139.9455  164.2374 C.3     1  UNL1        0.0689
     32 N         137.5316  141.1857  164.6396 N.3     1  UNL1       -0.3209
     33 H         137.2044  141.0894  165.6009 H       1  UNL1        0.1189
     34 H         136.7323  141.3197  164.0202 H       1  UNL1        0.1189
@<TRIPOS>BOND
     1    20    21    1
     2    21    14    1
     3    14    15   ar
     4    15    16   ar
     5    16    17   ar
     6    17    12    1
     7    12     1    1
     8     1     2   ar
     9     2     3   ar
    10     3    24    1
    11    26    24    1
    12    26    27    1
    13    27    28    1
    14    28    29    1
    15    29    30    1
    16    30    31    1
    17    31    32    1
    18     3     4   ar
    19     4     5   ar
    20     5     6   ar
    21     6     7    1
    22     7     8   am
    23     7     9    2
    24    17    18   ar
    25    18    19   ar
    26    19    22    1
    27    22    23    1
    28    19    14   ar
    29     6     1   ar
    30    31    26    1
    31    12    13    1
    32    24    25    1
    33    32    33    1
    34    32    34    1
    35     8    10    1
    36     8    11    1
@<TRIPOS>MOLECULE
*****
 34 36 0 0 0
SMALL
GASTEIGER

@<TRIPOS>ATOM
      1 C         140.6688  140.7758  168.6506 C.ar    1  UNL1        0.0764
      2 C         139.8709  140.2347  167.5014 C.ar    1  UNL1        0.0522
      3 C         138.5799  139.5153  167.7576 C.ar    1  UNL1        0.1515
      4 N         138.0867  139.3371  169.1629 N.ar    1  UNL1       -0.1329
      5 N         138.8845  139.8781  170.3121 N.ar    1  UNL1       -0.1409
      6 C         140.1756  140.5975  170.0560 C.ar    1  UNL1        0.1691
      7 C         140.9735  141.1386  171.2051 C.2     1  UNL1        0.2635
      8 N         142.2875  140.5121  171.5668 N.am    1  UNL1       -0.3240
      9 O         140.4573  142.3061  171.9927 O.2     1  UNL1       -0.2686
     10 H         142.6263  139.7457  171.0499 H       1  UNL1        0.1453
     11 H         142.8112  140.8672  172.3210 H       1  UNL1        0.1453
     12 N         141.9599  141.4951  168.3945 N.pl3   1  UNL1       -0.2964
     13 H         142.6510  141.5306  169.0948 H       1  UNL1        0.1537
     14 C         142.6744  143.4911  164.4251 C.ar    1  UNL1        0.1917
     15 C         143.8331  143.1653  165.3201 C.ar    1  UNL1        0.0446
     16 C         143.5950  142.4999  166.6432 C.ar    1  UNL1        0.0377
     17 C         142.1980  142.1605  167.0714 C.ar    1  UNL1        0.1355
     18 N         141.0393  142.4863  166.1764 N.ar    1  UNL1       -0.1940
     19 C         141.2774  143.1516  164.8532 C.ar    1  UNL1        0.2612
     20 C         144.1681  143.8691  162.3333 C.3     1  UNL1        0.2527
     21 O         142.9125  144.1564  163.1020 O.3     1  UNL1       -0.4667
     22 O         140.1186  143.4774  163.9582 O.3     1  UNL1       -0.4541
     23 C         139.4399  144.8108  164.0655 C.3     1  UNL1        0.2543
     24 N         137.7819  138.9742  166.6084 N.pl3   1  UNL1       -0.3170
     25 H         136.8501  138.6884  166.7474 H       1  UNL1        0.1482
     26 C         138.4037  138.8686  165.2474 C.3     1  UNL1        0.0845
     27 C         139.0570  137.5882  164.8186 C.3     1  UNL1        0.0209
     28 C         139.6788  137.4826  163.4577 C.3     1  UNL1        0.0018
     29 C         139.6473  138.6574  162.5255 C.3     1  UNL1        0.0015
     30 C         138.9941  139.9378  162.9544 C.3     1  UNL1        0.0172
     31 C         138.3723  140.0434  164.3153 C.3     1  UNL1        0.0689
     32 N         137.7191  141.3237  164.7441 N.3     1  UNL1       -0.3209
     33 H         137.3525  141.2182  165.6901 H       1  UNL1        0.1189
     34 H         136.9548  141.5458  164.1062 H       1  UNL1        0.1189
@<TRIPOS>BOND
     1    20    21    1
     2    21    14    1
     3    14    15   ar
     4    15    16   ar
     5    16    17   ar
     6    17    12    1
     7    12     1    1
     8     1     2   ar
     9     2     3   ar
    10     3    24    1
    11    26    24    1
    12    26    27    1
    13    27    28    1
    14    28    29    1
    15    29    30    1
    16    30    31    1
    17    31    32    1
    18     3     4   ar
    19     4     5   ar
    20     5     6   ar
    21     6     7    1
    22     7     8   am
    23     7     9    2
    24    17    18   ar
    25    18    19   ar
    26    19    22    1
    27    22    23    1
    28    19    14   ar
    29     6     1   ar
    30    31    26    1
    31    12    13    1
    32    24    25    1
    33    32    33    1
    34    32    34    1
    35     8    10    1
    36     8    11    1
@<TRIPOS>MOLECULE
*****
 34 36 0 0 0
SMALL
GASTEIGER

@<TRIPOS>ATOM
      1 C         141.0703  140.5264  168.6355 C.ar    1  UNL1        0.0764
      2 C         140.2043  140.0439  167.5096 C.ar    1  UNL1        0.0522
      3 C         138.8112  139.5628  167.7881 C.ar    1  UNL1        0.1515
      4 N         138.2839  139.5640  169.1924 N.ar    1  UNL1       -0.1329
      5 N         139.1498  140.0464  170.3182 N.ar    1  UNL1       -0.1409
      6 C         140.5430  140.5276  170.0397 C.ar    1  UNL1        0.1691
      7 C         141.4089  141.0100  171.1655 C.2     1  UNL1        0.2635
      8 N         142.6446  140.2472  171.5413 N.am    1  UNL1       -0.3240
      9 O         141.0391  142.2552  171.9156 O.2     1  UNL1       -0.2686
     10 H         142.8873  139.4299  171.0490 H       1  UNL1        0.1453
     11 H         143.2129  140.5638  172.2802 H       1  UNL1        0.1453
     12 N         142.4634  141.0075  168.3570 N.pl3   1  UNL1       -0.2964
     13 H         143.0770  141.1975  169.1031 H       1  UNL1        0.1537
     14 C         143.8387  141.5826  164.1111 C.ar    1  UNL1        0.1917
     15 C         143.4267  140.2215  164.5881 C.ar    1  UNL1        0.0446
     16 C         142.9683  140.0298  166.0035 C.ar    1  UNL1        0.0377
     17 C         142.9219  141.1992  166.9417 C.ar    1  UNL1        0.1355
     18 N         143.3338  142.5603  166.4646 N.ar    1  UNL1       -0.1940
     19 C         143.7922  142.7520  165.0493 C.ar    1  UNL1        0.2612
     20 C         144.3993  140.5952  161.7743 C.3     1  UNL1        0.2527
     21 O         144.2971  141.7743  162.6957 O.3     1  UNL1       -0.4667
     22 O         144.2042  144.1132  164.5722 O.3     1  UNL1       -0.4541
     23 C         143.2222  144.9812  163.8428 C.3     1  UNL1        0.2543
     24 N         137.9452  139.0803  166.6623 N.pl3   1  UNL1       -0.3170
     25 H         136.9948  138.8804  166.8231 H       1  UNL1        0.1482
     26 C         138.5274  138.9026  165.2913 C.3     1  UNL1        0.0845
     27 C         139.2854  137.6527  164.9547 C.3     1  UNL1        0.0209
     28 C         139.8677  137.4749  163.5838 C.3     1  UNL1        0.0018
     29 C         139.6919  138.5471  162.5495 C.3     1  UNL1        0.0015
     30 C         138.9339  139.7969  162.8862 C.3     1  UNL1        0.0172
     31 C         138.3517  139.9746  164.2571 C.3     1  UNL1        0.0689
     32 N         137.5938  141.2245  164.5938 N.3     1  UNL1       -0.3209
     33 H         137.2715  141.1767  165.5603 H       1  UNL1        0.1189
     34 H         136.7904  141.3130  163.9715 H       1  UNL1        0.1189
@<TRIPOS>BOND
     1    20    21    1
     2    21    14    1
     3    14    15   ar
     4    15    16   ar
     5    16    17   ar
     6    17    12    1
     7    12     1    1
     8     1     2   ar
     9     2     3   ar
    10     3    24    1
    11    26    24    1
    12    26    27    1
    13    27    28    1
    14    28    29    1
    15    29    30    1
    16    30    31    1
    17    31    32    1
    18     3     4   ar
    19     4     5   ar
    20     5     6   ar
    21     6     7    1
    22     7     8   am
    23     7     9    2
    24    17    18   ar
    25    18    19   ar
    26    19    22    1
    27    22    23    1
    28    19    14   ar
    29     6     1   ar
    30    31    26    1
    31    12    13    1
    32    24    25    1
    33    32    33    1
    34    32    34    1
    35     8    10    1
    36     8    11    1
@<TRIPOS>MOLECULE
*****
 34 36 0 0 0
SMALL
GASTEIGER

@<TRIPOS>ATOM
      1 C         140.7785  140.0854  167.4803 C.ar    1  UNL1        0.0764
      2 C         141.6301  139.5600  166.3627 C.ar    1  UNL1        0.0522
      3 C         142.9181  138.8549  166.6689 C.ar    1  UNL1        0.1515
      4 N         143.3546  138.6752  168.0927 N.ar    1  UNL1       -0.1329
      5 N         142.5031  139.2005  169.2103 N.ar    1  UNL1       -0.1409
      6 C         141.2150  139.9056  168.9041 C.ar    1  UNL1        0.1691
      7 C         140.3635  140.4309  170.0216 C.2     1  UNL1        0.2635
      8 N         139.9805  139.5315  171.1592 N.am    1  UNL1       -0.3240
      9 O         139.8950  141.8557  170.0015 O.2     1  UNL1       -0.2686
     10 H         140.2880  138.5963  171.1724 H       1  UNL1        0.1453
     11 H         139.4216  139.8763  171.8927 H       1  UNL1        0.1453
     12 N         139.4905  140.7905  167.1740 N.pl3   1  UNL1       -0.2964
     13 H         138.7218  140.6975  167.7821 H       1  UNL1        0.1537
     14 C         139.1399  143.3305  163.4761 C.ar    1  UNL1        0.1917
     15 C         140.1156  143.7036  164.5525 C.ar    1  UNL1        0.0446
     16 C         140.2325  142.8569  165.7851 C.ar    1  UNL1        0.0377
     17 C         139.3736  141.6371  165.9414 C.ar    1  UNL1        0.1355
     18 N         138.3979  141.2641  164.8650 N.ar    1  UNL1       -0.1940
     19 C         138.2810  142.1108  163.6323 C.ar    1  UNL1        0.2612
     20 C         139.5652  145.5758  162.2400 C.3     1  UNL1        0.2527
     21 O         139.0230  144.1772  162.2434 O.3     1  UNL1       -0.4667
     22 O         137.3052  141.7376  162.5559 O.3     1  UNL1       -0.4541
     23 C         137.6868  140.7271  161.5151 C.3     1  UNL1        0.2543
     24 N         143.7697  138.3295  165.5514 N.pl3   1  UNL1       -0.3170
     25 H         144.1641  137.4297  165.6142 H       1  UNL1        0.1482
     26 C         144.0202  139.1752  164.3381 C.3     1  UNL1        0.0845
     27 C         144.9741  140.3305  164.4131 C.3     1  UNL1        0.0209
     28 C         145.2246  141.1762  163.1998 C.3     1  UNL1        0.0018
     29 C         144.5213  140.8666  161.9115 C.3     1  UNL1        0.0015
     30 C         143.5675  139.7114  161.8366 C.3     1  UNL1        0.0172
     31 C         143.3170  138.8657  163.0499 C.3     1  UNL1        0.0689
     32 N         142.3631  137.7105  162.9749 N.3     1  UNL1       -0.3209
     33 H         142.3145  137.2502  163.8839 H       1  UNL1        0.1189
     34 H         142.6893  137.0452  162.2739 H       1  UNL1        0.1189
@<TRIPOS>BOND
     1    20    21    1
     2    21    14    1
     3    14    15   ar
     4    15    16   ar
     5    16    17   ar
     6    17    12    1
     7    12     1    1
     8     1     2   ar
     9     2     3   ar
    10     3    24    1
    11    26    24    1
    12    26    27    1
    13    27    28    1
    14    28    29    1
    15    29    30    1
    16    30    31    1
    17    31    32    1
    18     3     4   ar
    19     4     5   ar
    20     5     6   ar
    21     6     7    1
    22     7     8   am
    23     7     9    2
    24    17    18   ar
    25    18    19   ar
    26    19    22    1
    27    22    23    1
    28    19    14   ar
    29     6     1   ar
    30    31    26    1
    31    12    13    1
    32    24    25    1
    33    32    33    1
    34    32    34    1
    35     8    10    1
    36     8    11    1
@<TRIPOS>MOLECULE
*****
 34 36 0 0 0
SMALL
GASTEIGER

@<TRIPOS>ATOM
      1 C         140.2786  140.1832  167.1129 C.ar    1  UNL1        0.0764
      2 C         141.4173  140.2356  166.1379 C.ar    1  UNL1        0.0522
      3 C         142.7427  140.7953  166.5620 C.ar    1  UNL1        0.1515
      4 N         142.9295  141.3027  167.9612 N.ar    1  UNL1       -0.1329
      5 N         141.7909  141.2503  168.9362 N.ar    1  UNL1       -0.1409
      6 C         140.4654  140.6905  168.5121 C.ar    1  UNL1        0.1691
      7 C         139.3267  140.6381  169.4871 C.2     1  UNL1        0.2635
      8 N         139.1862  141.7031  170.5341 N.am    1  UNL1       -0.3240
      9 O         138.3286  139.5207  169.4152 O.2     1  UNL1       -0.2686
     10 H         139.8413  142.4365  170.5813 H       1  UNL1        0.1453
     11 H         138.4389  141.6687  171.1740 H       1  UNL1        0.1453
     12 N         138.9532  139.6234  166.6888 N.pl3   1  UNL1       -0.2964
     13 H         138.2951  139.3484  167.3674 H       1  UNL1        0.1537
     14 C         137.9850  139.2012  162.3145 C.ar    1  UNL1        0.1917
     15 C         138.5294  138.0308  163.0785 C.ar    1  UNL1        0.0446
     16 C         138.8521  138.1716  164.5366 C.ar    1  UNL1        0.0377
     17 C         138.6305  139.4827  165.2307 C.ar    1  UNL1        0.1355
     18 N         138.0861  140.6531  164.4666 N.ar    1  UNL1       -0.1940
     19 C         137.7633  140.5123  163.0086 C.ar    1  UNL1        0.2612
     20 C         138.6145  139.5858  159.8234 C.3     1  UNL1        0.2527
     21 O         137.6622  139.0605  160.8564 O.3     1  UNL1       -0.4667
     22 O         137.2189  141.6828  162.2445 O.3     1  UNL1       -0.4541
     23 C         137.7888  143.0527  162.4647 C.3     1  UNL1        0.2543
     24 N         143.8815  140.8477  165.5870 N.pl3   1  UNL1       -0.3170
     25 H         144.5579  140.1325  165.5812 H       1  UNL1        0.1482
     26 C         143.9895  141.9900  164.6208 C.3     1  UNL1        0.0845
     27 C         143.5541  143.3650  165.0332 C.3     1  UNL1        0.0209
     28 C         143.6622  144.5072  164.0670 C.3     1  UNL1        0.0018
     29 C         144.2055  144.2745  162.6883 C.3     1  UNL1        0.0015
     30 C         144.6409  142.8996  162.2760 C.3     1  UNL1        0.0172
     31 C         144.5328  141.7574  163.2422 C.3     1  UNL1        0.0689
     32 N         144.9682  140.3825  162.8298 N.3     1  UNL1       -0.3209
     33 H         144.8257  139.7342  163.6042 H       1  UNL1        0.1189
     34 H         145.9565  140.3999  162.5783 H       1  UNL1        0.1189
@<TRIPOS>BOND
     1    20    21    1
     2    21    14    1
     3    14    15   ar
     4    15    16   ar
     5    16    17   ar
     6    17    12    1
     7    12     1    1
     8     1     2   ar
     9     2     3   ar
    10     3    24    1
    11    26    24    1
    12    26    27    1
    13    27    28    1
    14    28    29    1
    15    29    30    1
    16    30    31    1
    17    31    32    1
    18     3     4   ar
    19     4     5   ar
    20     5     6   ar
    21     6     7    1
    22     7     8   am
    23     7     9    2
    24    17    18   ar
    25    18    19   ar
    26    19    22    1
    27    22    23    1
    28    19    14   ar
    29     6     1   ar
    30    31    26    1
    31    12    13    1
    32    24    25    1
    33    32    33    1
    34    32    34    1
    35     8    10    1
    36     8    11    1
@<TRIPOS>MOLECULE
*****
 34 36 0 0 0
SMALL
GASTEIGER

@<TRIPOS>ATOM
      1 C         141.5045  141.6133  167.6712 C.ar    1  UNL1        0.0764
      2 C         142.1353  140.6945  166.6673 C.ar    1  UNL1        0.0522
      3 C         142.8544  139.4611  167.1273 C.ar    1  UNL1        0.1515
      4 N         142.9427  139.1465  168.5913 N.ar    1  UNL1       -0.1329
      5 N         142.3120  140.0653  169.5952 N.ar    1  UNL1       -0.1409
      6 C         141.5928  141.2988  169.1352 C.ar    1  UNL1        0.1691
      7 C         140.9620  142.2175  170.1391 C.2     1  UNL1        0.2635
      8 N         139.8718  141.7124  171.0370 N.am    1  UNL1       -0.3240
      9 O         141.4215  143.6414  170.2452 O.2     1  UNL1       -0.2686
     10 H         139.5702  140.7778  170.9674 H       1  UNL1        0.1453
     11 H         139.4578  142.3154  171.6959 H       1  UNL1        0.1453
     12 N         140.7854  142.8467  167.2112 N.pl3   1  UNL1       -0.2964
     13 H         140.8450  143.6765  167.7376 H       1  UNL1        0.1537
     14 C         138.3557  142.7541  163.4246 C.ar    1  UNL1        0.1917
     15 C         138.4311  141.5365  164.2973 C.ar    1  UNL1        0.0446
     16 C         139.2410  141.5674  165.5595 C.ar    1  UNL1        0.0377
     17 C         139.9755  142.8158  165.9490 C.ar    1  UNL1        0.1355
     18 N         139.9001  144.0335  165.0763 N.ar    1  UNL1       -0.1940
     19 C         139.0902  144.0026  163.8141 C.ar    1  UNL1        0.2612
     20 C         138.2057  142.3963  160.8557 C.3     1  UNL1        0.2527
     21 O         137.5458  142.7233  162.1624 O.3     1  UNL1       -0.4667
     22 O         139.0149  145.2203  162.9413 O.3     1  UNL1       -0.4541
     23 C         140.1139  145.5108  161.9627 C.3     1  UNL1        0.2543
     24 N         143.4852  138.5423  166.1233 N.pl3   1  UNL1       -0.3170
     25 H         144.3474  138.1114  166.3239 H       1  UNL1        0.1482
     26 C         142.8024  138.2800  164.8138 C.3     1  UNL1        0.0845
     27 C         141.4593  137.6124  164.7888 C.3     1  UNL1        0.0209
     28 C         140.7764  137.3501  163.4792 C.3     1  UNL1        0.0018
     29 C         141.4367  137.7553  162.1947 C.3     1  UNL1        0.0015
     30 C         142.7797  138.4228  162.2198 C.3     1  UNL1        0.0172
     31 C         143.4626  138.6851  163.5293 C.3     1  UNL1        0.0689
     32 N         144.8056  139.3526  163.5544 N.3     1  UNL1       -0.3209
     33 H         145.1184  139.4510  164.5203 H       1  UNL1        0.1189
     34 H         144.7350  140.2748  163.1242 H       1  UNL1        0.1189
@<TRIPOS>BOND
     1    20    21    1
     2    21    14    1
     3    14    15   ar
     4    15    16   ar
     5    16    17   ar
     6    17    12    1
     7    12     1    1
     8     1     2   ar
     9     2     3   ar
    10     3    24    1
    11    26    24    1
    12    26    27    1
    13    27    28    1
    14    28    29    1
    15    29    30    1
    16    30    31    1
    17    31    32    1
    18     3     4   ar
    19     4     5   ar
    20     5     6   ar
    21     6     7    1
    22     7     8   am
    23     7     9    2
    24    17    18   ar
    25    18    19   ar
    26    19    22    1
    27    22    23    1
    28    19    14   ar
    29     6     1   ar
    30    31    26    1
    31    12    13    1
    32    24    25    1
    33    32    33    1
    34    32    34    1
    35     8    10    1
    36     8    11    1
@<TRIPOS>MOLECULE
*****
 34 36 0 0 0
SMALL
GASTEIGER

@<TRIPOS>ATOM
      1 C         143.9365  142.0172  160.3648 C.ar    1  UNL1        0.0764
      2 C         144.0053  140.9157  161.3807 C.ar    1  UNL1        0.0522
      3 C         144.1108  139.4880  160.9330 C.ar    1  UNL1        0.1515
      4 N         144.1477  139.1617  159.4694 N.ar    1  UNL1       -0.1329
      5 N         144.0789  140.2631  158.4535 N.ar    1  UNL1       -0.1409
      6 C         143.9733  141.6909  158.9012 C.ar    1  UNL1        0.1691
      7 C         143.9045  142.7923  157.8852 C.2     1  UNL1        0.2635
      8 N         144.8375  142.7887  156.7108 N.am    1  UNL1       -0.3240
      9 O         142.9026  143.8973  158.0438 O.2     1  UNL1       -0.2686
     10 H         145.4951  142.0634  156.6067 H       1  UNL1        0.1453
     11 H         144.7924  143.5116  156.0440 H       1  UNL1        0.1453
     12 N         143.8309  143.4449  160.8125 N.pl3   1  UNL1       -0.2964
     13 H         144.5387  144.0878  160.5783 H       1  UNL1        0.1537
     14 C         140.2787  144.7893  163.2259 C.ar    1  UNL1        0.1917
     15 C         141.6682  145.0653  163.7188 C.ar    1  UNL1        0.0446
     16 C         142.8523  144.6172  162.9144 C.ar    1  UNL1        0.0377
     17 C         142.6468  143.8930  161.6169 C.ar    1  UNL1        0.1355
     18 N         141.2573  143.6170  161.1240 N.ar    1  UNL1       -0.1940
     19 C         140.0732  144.0652  161.9284 C.ar    1  UNL1        0.2612
     20 C         138.3686  144.2591  164.9053 C.3     1  UNL1        0.2527
     21 O         139.0946  145.2375  164.0303 O.3     1  UNL1       -0.4667
     22 O         138.6837  143.7892  161.4354 O.3     1  UNL1       -0.4541
     23 C         138.2382  142.3763  161.2000 C.3     1  UNL1        0.2543
     24 N         144.1796  138.3865  161.9490 N.pl3   1  UNL1       -0.3170
     25 H         144.7118  137.5791  161.7643 H       1  UNL1        0.1482
     26 C         143.4376  138.5153  163.2462 C.3     1  UNL1        0.0845
     27 C         144.0718  139.2250  164.4057 C.3     1  UNL1        0.0209
     28 C         143.3298  139.3538  165.7029 C.3     1  UNL1        0.0018
     29 C         141.9537  138.7730  165.8407 C.3     1  UNL1        0.0015
     30 C         141.3196  138.0633  164.6813 C.3     1  UNL1        0.0172
     31 C         142.0616  137.9345  163.3841 C.3     1  UNL1        0.0689
     32 N         141.4275  137.2248  162.2246 N.3     1  UNL1       -0.3209
     33 H         142.0678  137.2313  161.4307 H       1  UNL1        0.1189
     34 H         140.5622  137.6996  161.9674 H       1  UNL1        0.1189
@<TRIPOS>BOND
     1    20    21    1
     2    21    14    1
     3    14    15   ar
     4    15    16   ar
     5    16    17   ar
     6    17    12    1
     7    12     1    1
     8     1     2   ar
     9     2     3   ar
    10     3    24    1
    11    26    24    1
    12    26    27    1
    13    27    28    1
    14    28    29    1
    15    29    30    1
    16    30    31    1
    17    31    32    1
    18     3     4   ar
    19     4     5   ar
    20     5     6   ar
    21     6     7    1
    22     7     8   am
    23     7     9    2
    24    17    18   ar
    25    18    19   ar
    26    19    22    1
    27    22    23    1
    28    19    14   ar
    29     6     1   ar
    30    31    26    1
    31    12    13    1
    32    24    25    1
    33    32    33    1
    34    32    34    1
    35     8    10    1
    36     8    11    1
@<TRIPOS>MOLECULE
*****
 34 36 0 0 0
SMALL
GASTEIGER

@<TRIPOS>ATOM
      1 C         142.2206  138.3999  160.2843 C.ar    1  UNL1        0.0764
      2 C         141.0439  138.1876  161.1902 C.ar    1  UNL1        0.0522
      3 C         139.6549  138.1718  160.6242 C.ar    1  UNL1        0.1515
      4 N         139.4425  138.3683  159.1524 N.ar    1  UNL1       -0.1329
      5 N         140.6191  138.5806  158.2465 N.ar    1  UNL1       -0.1409
      6 C         142.0082  138.5963  158.8125 C.ar    1  UNL1        0.1691
      7 C         143.1847  138.8086  157.9066 C.2     1  UNL1        0.2635
      8 N         143.3886  137.9141  156.7199 N.am    1  UNL1       -0.3240
      9 O         144.1574  139.9154  158.1875 O.2     1  UNL1       -0.2686
     10 H         142.7502  137.1877  156.5356 H       1  UNL1        0.1453
     11 H         144.1609  138.0535  156.1254 H       1  UNL1        0.1453
     12 N         143.6096  138.4156  160.8503 N.pl3   1  UNL1       -0.2964
     13 H         144.2553  137.7197  160.5896 H       1  UNL1        0.1537
     14 C         144.8252  141.6439  163.7400 C.ar    1  UNL1        0.1917
     15 C         144.8588  140.2057  164.1646 C.ar    1  UNL1        0.0446
     16 C         144.4536  139.1296  163.2014 C.ar    1  UNL1        0.0377
     17 C         144.0148  139.4917  161.8135 C.ar    1  UNL1        0.1355
     18 N         143.9812  140.9299  161.3889 N.ar    1  UNL1       -0.1940
     19 C         144.3865  142.0060  162.3521 C.ar    1  UNL1        0.2612
     20 C         144.2269  143.2811  165.6665 C.3     1  UNL1        0.2527
     21 O         145.2305  142.7200  164.7032 O.3     1  UNL1       -0.4667
     22 O         144.3529  143.4443  161.9274 O.3     1  UNL1       -0.4541
     23 C         143.1537  144.2902  162.2379 C.3     1  UNL1        0.2543
     24 N         138.4783  137.9595  161.5300 N.pl3   1  UNL1       -0.3170
     25 H         137.7162  137.4146  161.2276 H       1  UNL1        0.1482
     26 C         138.4629  138.5775  162.8967 C.3     1  UNL1        0.0845
     27 C         139.0018  137.8150  164.0708 C.3     1  UNL1        0.0209
     28 C         138.9864  138.4330  165.4374 C.3     1  UNL1        0.0018
     29 C         138.4320  139.8135  165.6301 C.3     1  UNL1        0.0015
     30 C         137.8931  140.5759  164.4561 C.3     1  UNL1        0.0172
     31 C         137.9085  139.9579  163.0894 C.3     1  UNL1        0.0689
     32 N         137.3696  140.7203  161.9155 N.3     1  UNL1       -0.3209
     33 H         137.4583  140.1534  161.0722 H       1  UNL1        0.1189
     34 H         137.8974  141.5855  161.8006 H       1  UNL1        0.1189
@<TRIPOS>BOND
     1    20    21    1
     2    21    14    1
     3    14    15   ar
     4    15    16   ar
     5    16    17   ar
     6    17    12    1
     7    12     1    1
     8     1     2   ar
     9     2     3   ar
    10     3    24    1
    11    26    24    1
    12    26    27    1
    13    27    28    1
    14    28    29    1
    15    29    30    1
    16    30    31    1
    17    31    32    1
    18     3     4   ar
    19     4     5   ar
    20     5     6   ar
    21     6     7    1
    22     7     8   am
    23     7     9    2
    24    17    18   ar
    25    18    19   ar
    26    19    22    1
    27    22    23    1
    28    19    14   ar
    29     6     1   ar
    30    31    26    1
    31    12    13    1
    32    24    25    1
    33    32    33    1
    34    32    34    1
    35     8    10    1
    36     8    11    1
@<TRIPOS>MOLECULE
*****
 34 36 0 0 0
SMALL
GASTEIGER

@<TRIPOS>ATOM
      1 C         140.6492  139.5571  165.0375 C.ar    1  UNL1        0.0764
      2 C         141.1616  139.7716  166.4309 C.ar    1  UNL1        0.0522
      3 C         142.5351  139.2995  166.8059 C.ar    1  UNL1        0.1515
      4 N         143.3962  138.6129  165.7875 N.ar    1  UNL1       -0.1329
      5 N         142.8839  138.3985  164.3941 N.ar    1  UNL1       -0.1409
      6 C         141.5104  138.8706  164.0191 C.ar    1  UNL1        0.1691
      7 C         140.9980  138.6562  162.6257 C.2     1  UNL1        0.2635
      8 N         141.0877  139.7612  161.6153 N.am    1  UNL1       -0.3240
      9 O         140.3961  137.3368  162.2428 O.2     1  UNL1       -0.2686
     10 H         141.4828  140.6272  161.8667 H       1  UNL1        0.1453
     11 H         140.7514  139.6205  160.7008 H       1  UNL1        0.1453
     12 N         139.2757  140.0292  164.6625 N.pl3   1  UNL1       -0.2964
     13 H         138.4981  139.4418  164.8021 H       1  UNL1        0.1537
     14 C         138.7095  144.1307  162.8998 C.ar    1  UNL1        0.1917
     15 C         139.0915  143.9806  164.3425 C.ar    1  UNL1        0.0446
     16 C         139.2803  142.6135  164.9301 C.ar    1  UNL1        0.0377
     17 C         139.0870  141.3964  164.0749 C.ar    1  UNL1        0.1355
     18 N         138.7049  141.5465  162.6322 N.ar    1  UNL1       -0.1940
     19 C         138.5162  142.9136  162.0447 C.ar    1  UNL1        0.2612
     20 C         139.6791  146.2071  161.6757 C.3     1  UNL1        0.2527
     21 O         138.5207  145.4979  162.3122 O.3     1  UNL1       -0.4667
     22 O         138.1341  143.0637  160.6019 O.3     1  UNL1       -0.4541
     23 C         139.1581  142.8437  159.5281 C.3     1  UNL1        0.2543
     24 N         143.0475  139.5139  168.1993 N.pl3   1  UNL1       -0.3170
     25 H         143.8917  139.0945  168.4834 H       1  UNL1        0.1482
     26 C         142.2736  140.3673  169.1599 C.3     1  UNL1        0.0845
     27 C         141.2771  139.7377  170.0877 C.3     1  UNL1        0.0209
     28 C         140.5032  140.5911  171.0483 C.3     1  UNL1        0.0018
     29 C         140.7259  142.0742  171.0811 C.3     1  UNL1        0.0015
     30 C         141.7223  142.7038  170.1534 C.3     1  UNL1        0.0172
     31 C         142.4962  141.8503  169.1928 C.3     1  UNL1        0.0689
     32 N         143.4926  142.4799  168.2651 N.3     1  UNL1       -0.3209
     33 H         143.9225  141.7577  167.6871 H       1  UNL1        0.1189
     34 H         144.2134  142.9527  168.8104 H       1  UNL1        0.1189
@<TRIPOS>BOND
     1    20    21    1
     2    21    14    1
     3    14    15   ar
     4    15    16   ar
     5    16    17   ar
     6    17    12    1
     7    12     1    1
     8     1     2   ar
     9     2     3   ar
    10     3    24    1
    11    26    24    1
    12    26    27    1
    13    27    28    1
    14    28    29    1
    15    29    30    1
    16    30    31    1
    17    31    32    1
    18     3     4   ar
    19     4     5   ar
    20     5     6   ar
    21     6     7    1
    22     7     8   am
    23     7     9    2
    24    17    18   ar
    25    18    19   ar
    26    19    22    1
    27    22    23    1
    28    19    14   ar
    29     6     1   ar
    30    31    26    1
    31    12    13    1
    32    24    25    1
    33    32    33    1
    34    32    34    1
    35     8    10    1
    36     8    11    1
