@<TRIPOS>MOLECULE
*****
 24 27 0 0 0
SMALL
GASTEIGER

@<TRIPOS>ATOM
      1 C         141.8630  140.3580  166.2554 C.ar    1  UNL1        0.1215
      2 N         142.9658  140.4738  167.2655 N.ar    1  UNL1       -0.2309
      3 C         142.5531  141.4910  168.2878 C.ar    1  UNL1        0.0983
      4 C         143.2384  142.0165  169.5143 C.ar    1  UNL1        0.0206
      5 C         142.5658  143.0549  170.3623 C.ar    1  UNL1        0.0016
      6 C         141.2080  143.5679  169.9839 C.ar    1  UNL1        0.0016
      7 C         140.5227  143.0424  168.7574 C.ar    1  UNL1        0.0188
      8 C         141.1953  142.0040  167.9094 C.ar    1  UNL1        0.0789
      9 N         140.7688  141.3037  166.6533 N.ar    1  UNL1       -0.3106
     10 C         143.4646  139.2642  161.4347 C.3     1  UNL1        0.0896
     11 N         142.6565  138.9082  162.6473 N.3     1  UNL1       -0.2711
     12 C         141.8411  137.6492  162.6620 C.3     1  UNL1        0.0722
     13 C         141.0330  137.2933  163.8746 C.3     1  UNL1        0.0178
     14 C         141.0403  138.1962  165.0723 C.3     1  UNL1        0.0103
     15 C         141.8557  139.4551  165.0576 C.3     1  UNL1        0.0729
     16 C         142.6638  139.8111  163.8451 C.3     1  UNL1        0.0796
     17 C         139.4752  141.5126  165.9233 C.3     1  UNL1        0.1339
     18 C         139.3339  142.6523  164.9585 C.ar    1  UNL1        0.0006
     19 C         140.5414  143.4427  164.5494 C.ar    1  UNL1       -0.0001
     20 C         140.4002  144.5825  163.5845 C.ar    1  UNL1        0.0294
     21 C         139.0515  144.9320  163.0288 C.ar    1  UNL1        0.1401
     22 F         138.9103  146.0718  162.0639 F       1  UNL1       -0.2042
     23 C         137.8440  144.1416  163.4378 C.ar    1  UNL1        0.0294
     24 C         137.9852  143.0018  164.4027 C.ar    1  UNL1       -0.0001
@<TRIPOS>BOND
     1    10    11    1
     2    11    12    1
     3    12    13    1
     4    13    14    1
     5    14    15    1
     6    15     1    1
     7     1     2   ar
     8     2     3   ar
     9     3     4   ar
    10     4     5   ar
    11     5     6   ar
    12     6     7   ar
    13     7     8   ar
    14     8     9   ar
    15     9    17    1
    16    17    18    1
    17    18    19   ar
    18    19    20   ar
    19    20    21   ar
    20    21    22    1
    21    21    23   ar
    22    23    24   ar
    23    15    16    1
    24    16    11    1
    25     9     1   ar
    26    24    18   ar
    27     8     3   ar
@<TRIPOS>MOLECULE
*****
 24 27 0 0 0
SMALL
GASTEIGER

@<TRIPOS>ATOM
      1 C         140.0576  140.0080  166.2559 C.ar    1  UNL1        0.1215
      2 N         139.3585  139.6909  167.5446 N.ar    1  UNL1       -0.2309
      3 C         139.6571  140.7930  168.5173 C.ar    1  UNL1        0.0983
      4 C         139.2385  141.0165  169.9402 C.ar    1  UNL1        0.0206
      5 C         139.7036  142.2383  170.6756 C.ar    1  UNL1        0.0016
      6 C         140.5872  143.2366  169.9881 C.ar    1  UNL1        0.0016
      7 C         141.0058  143.0130  168.5652 C.ar    1  UNL1        0.0188
      8 C         140.5407  141.7912  167.8298 C.ar    1  UNL1        0.0789
      9 N         140.7882  141.3061  166.4322 N.ar    1  UNL1       -0.3106
     10 C         137.7857  138.6856  161.7736 C.3     1  UNL1        0.0896
     11 N         138.8948  138.5123  162.7686 N.3     1  UNL1       -0.2711
     12 C         139.9770  137.5045  162.5174 C.3     1  UNL1        0.0722
     13 C         141.0861  137.3312  163.5123 C.3     1  UNL1        0.0178
     14 C         141.1129  138.1657  164.7585 C.3     1  UNL1        0.0103
     15 C         140.0307  139.1735  165.0097 C.3     1  UNL1        0.0729
     16 C         138.9217  139.3468  164.0148 C.3     1  UNL1        0.0796
     17 C         141.6203  141.9976  165.3932 C.3     1  UNL1        0.1339
     18 C         141.0239  143.0957  164.5636 C.ar    1  UNL1        0.0006
     19 C         139.5356  143.2773  164.5179 C.ar    1  UNL1       -0.0001
     20 C         138.9390  144.3754  163.6882 C.ar    1  UNL1        0.0294
     21 C         139.8309  145.2919  162.9042 C.ar    1  UNL1        0.1401
     22 F         139.2344  146.3900  162.0745 F       1  UNL1       -0.2042
     23 C         141.3191  145.1103  162.9499 C.ar    1  UNL1        0.0294
     24 C         141.9156  144.0122  163.7795 C.ar    1  UNL1       -0.0001
@<TRIPOS>BOND
     1    10    11    1
     2    11    12    1
     3    12    13    1
     4    13    14    1
     5    14    15    1
     6    15     1    1
     7     1     2   ar
     8     2     3   ar
     9     3     4   ar
    10     4     5   ar
    11     5     6   ar
    12     6     7   ar
    13     7     8   ar
    14     8     9   ar
    15     9    17    1
    16    17    18    1
    17    18    19   ar
    18    19    20   ar
    19    20    21   ar
    20    21    22    1
    21    21    23   ar
    22    23    24   ar
    23    15    16    1
    24    16    11    1
    25     9     1   ar
    26    24    18   ar
    27     8     3   ar
@<TRIPOS>MOLECULE
*****
 24 27 0 0 0
SMALL
GASTEIGER

@<TRIPOS>ATOM
      1 C         139.7399  140.0163  166.3741 C.ar    1  UNL1        0.1215
      2 N         139.5566  138.6434  165.7984 N.ar    1  UNL1       -0.2309
      3 C         139.1291  138.7936  164.3684 C.ar    1  UNL1        0.0983
      4 C         138.8031  137.7851  163.3070 C.ar    1  UNL1        0.0206
      5 C         138.3962  138.2424  161.9377 C.ar    1  UNL1        0.0016
      6 C         138.3153  139.7082  161.6296 C.ar    1  UNL1        0.0016
      7 C         138.6414  140.7167  162.6910 C.ar    1  UNL1        0.0188
      8 C         139.0483  140.2594  164.0604 C.ar    1  UNL1        0.0789
      9 N         139.4258  141.0150  165.3000 N.ar    1  UNL1       -0.3106
     10 C         143.3545  141.6772  169.7172 C.3     1  UNL1        0.0896
     11 N         141.9703  141.1650  169.4491 N.3     1  UNL1       -0.2711
     12 C         141.0094  140.9710  170.5844 C.3     1  UNL1        0.0722
     13 C         139.6253  140.4589  170.3163 C.3     1  UNL1        0.0178
     14 C         139.2022  140.1406  168.9129 C.3     1  UNL1        0.0103
     15 C         140.1631  140.3345  167.7775 C.3     1  UNL1        0.0729
     16 C         141.5472  140.8467  168.0457 C.3     1  UNL1        0.0796
     17 C         139.4796  142.5074  165.4407 C.3     1  UNL1        0.1339
     18 C         140.6367  143.2732  164.8710 C.ar    1  UNL1        0.0006
     19 C         142.0253  142.7134  164.9638 C.ar    1  UNL1       -0.0001
     20 C         143.1824  143.4791  164.3941 C.ar    1  UNL1        0.0294
     21 C         142.9510  144.8049  163.7315 C.ar    1  UNL1        0.1401
     22 F         144.1081  145.5706  163.1618 F       1  UNL1       -0.2042
     23 C         141.5625  145.3647  163.6387 C.ar    1  UNL1        0.0294
     24 C         140.4054  144.5989  164.2084 C.ar    1  UNL1       -0.0001
@<TRIPOS>BOND
     1    10    11    1
     2    11    12    1
     3    12    13    1
     4    13    14    1
     5    14    15    1
     6    15     1    1
     7     1     2   ar
     8     2     3   ar
     9     3     4   ar
    10     4     5   ar
    11     5     6   ar
    12     6     7   ar
    13     7     8   ar
    14     8     9   ar
    15     9    17    1
    16    17    18    1
    17    18    19   ar
    18    19    20   ar
    19    20    21   ar
    20    21    22    1
    21    21    23   ar
    22    23    24   ar
    23    15    16    1
    24    16    11    1
    25     9     1   ar
    26    24    18   ar
    27     8     3   ar
@<TRIPOS>MOLECULE
*****
 24 27 0 0 0
SMALL
GASTEIGER

@<TRIPOS>ATOM
      1 C         139.9569  139.5550  166.4274 C.ar    1  UNL1        0.1215
      2 N         139.1446  139.9036  167.6392 N.ar    1  UNL1       -0.2309
      3 C         140.0911  140.1537  168.7756 C.ar    1  UNL1        0.0983
      4 C         139.8612  140.5331  170.2085 C.ar    1  UNL1        0.0206
      5 C         141.0286  140.7184  171.1319 C.ar    1  UNL1        0.0016
      6 C         142.4260  140.5243  170.6224 C.ar    1  UNL1        0.0016
      7 C         142.6560  140.1449  169.1895 C.ar    1  UNL1        0.0188
      8 C         141.4885  139.9596  168.2661 C.ar    1  UNL1        0.0789
      9 N         141.4056  139.5896  166.8149 N.ar    1  UNL1       -0.3106
     10 C         137.6282  141.0578  162.0320 C.3     1  UNL1        0.0896
     11 N         138.2513  139.9803  162.8693 N.3     1  UNL1       -0.2711
     12 C         138.3331  138.5769  162.3461 C.3     1  UNL1        0.0722
     13 C         138.9561  137.4996  163.1834 C.3     1  UNL1        0.0178
     14 C         139.4974  137.8256  164.5438 C.3     1  UNL1        0.0103
     15 C         139.4156  139.2290  165.0670 C.3     1  UNL1        0.0729
     16 C         138.7926  140.3063  164.2297 C.3     1  UNL1        0.0796
     17 C         142.5673  139.3043  165.9099 C.3     1  UNL1        0.1339
     18 C         143.1560  140.4032  165.0759 C.ar    1  UNL1        0.0006
     19 C         142.7334  141.8247  165.3017 C.ar    1  UNL1       -0.0001
     20 C         143.3220  142.9237  164.4677 C.ar    1  UNL1        0.0294
     21 C         144.3333  142.6013  163.4078 C.ar    1  UNL1        0.1401
     22 F         144.9220  143.7003  162.5738 F       1  UNL1       -0.2042
     23 C         144.7559  141.1799  163.1820 C.ar    1  UNL1        0.0294
     24 C         144.1673  140.0809  164.0160 C.ar    1  UNL1       -0.0001
@<TRIPOS>BOND
     1    10    11    1
     2    11    12    1
     3    12    13    1
     4    13    14    1
     5    14    15    1
     6    15     1    1
     7     1     2   ar
     8     2     3   ar
     9     3     4   ar
    10     4     5   ar
    11     5     6   ar
    12     6     7   ar
    13     7     8   ar
    14     8     9   ar
    15     9    17    1
    16    17    18    1
    17    18    19   ar
    18    19    20   ar
    19    20    21   ar
    20    21    22    1
    21    21    23   ar
    22    23    24   ar
    23    15    16    1
    24    16    11    1
    25     9     1   ar
    26    24    18   ar
    27     8     3   ar
@<TRIPOS>MOLECULE
*****
 24 27 0 0 0
SMALL
GASTEIGER

@<TRIPOS>ATOM
      1 C         143.3106  141.5478  165.9590 C.ar    1  UNL1        0.1215
      2 N         143.2048  142.5735  167.0483 N.ar    1  UNL1       -0.2309
      3 C         142.7830  141.8727  168.3057 C.ar    1  UNL1        0.0983
      4 C         142.5200  142.3746  169.6945 C.ar    1  UNL1        0.0206
      5 C         142.1020  141.4175  170.7712 C.ar    1  UNL1        0.0016
      6 C         141.9471  139.9585  170.4590 C.ar    1  UNL1        0.0016
      7 C         142.2101  139.4567  169.0701 C.ar    1  UNL1        0.0188
      8 C         142.6281  140.4138  167.9935 C.ar    1  UNL1        0.0789
      9 N         142.9541  140.2130  166.5432 N.ar    1  UNL1       -0.3106
     10 C         142.0870  143.1836  161.1813 C.3     1  UNL1        0.0896
     11 N         143.0920  142.6285  162.1467 N.3     1  UNL1       -0.2711
     12 C         144.4901  142.3363  161.6886 C.3     1  UNL1        0.0722
     13 C         145.4950  141.7812  162.6540 C.3     1  UNL1        0.0178
     14 C         145.1019  141.5184  164.0774 C.3     1  UNL1        0.0103
     15 C         143.7038  141.8106  164.5355 C.3     1  UNL1        0.0729
     16 C         142.6989  142.3657  163.5702 C.3     1  UNL1        0.0796
     17 C         142.9283  138.9066  165.8064 C.3     1  UNL1        0.1339
     18 C         141.7338  138.5360  164.9784 C.ar    1  UNL1        0.0006
     19 C         141.9222  137.9180  163.6246 C.ar    1  UNL1       -0.0001
     20 C         140.7277  137.5474  162.7964 C.ar    1  UNL1        0.0294
     21 C         139.3447  137.7948  163.3221 C.ar    1  UNL1        0.1401
     22 F         138.1502  137.4242  162.4940 F       1  UNL1       -0.2042
     23 C         139.1563  138.4128  164.6758 C.ar    1  UNL1        0.0294
     24 C         140.3508  138.7834  165.5039 C.ar    1  UNL1       -0.0001
@<TRIPOS>BOND
     1    10    11    1
     2    11    12    1
     3    12    13    1
     4    13    14    1
     5    14    15    1
     6    15     1    1
     7     1     2   ar
     8     2     3   ar
     9     3     4   ar
    10     4     5   ar
    11     5     6   ar
    12     6     7   ar
    13     7     8   ar
    14     8     9   ar
    15     9    17    1
    16    17    18    1
    17    18    19   ar
    18    19    20   ar
    19    20    21   ar
    20    21    22    1
    21    21    23   ar
    22    23    24   ar
    23    15    16    1
    24    16    11    1
    25     9     1   ar
    26    24    18   ar
    27     8     3   ar
@<TRIPOS>MOLECULE
*****
 24 27 0 0 0
SMALL
GASTEIGER

@<TRIPOS>ATOM
      1 C         142.5466  140.9362  166.5981 C.ar    1  UNL1        0.1215
      2 N         143.0489  141.1221  167.9992 N.ar    1  UNL1       -0.2309
      3 C         141.9072  140.8686  168.9385 C.ar    1  UNL1        0.0983
      4 C         141.8115  140.9054  170.4349 C.ar    1  UNL1        0.0206
      5 C         140.5078  140.5996  171.1107 C.ar    1  UNL1        0.0016
      6 C         139.2998  140.2570  170.2901 C.ar    1  UNL1        0.0016
      7 C         139.3955  140.2202  168.7937 C.ar    1  UNL1        0.0188
      8 C         140.6993  140.5259  168.1178 C.ar    1  UNL1        0.0789
      9 N         141.0944  140.5678  166.6714 N.ar    1  UNL1       -0.3106
     10 C         144.3057  143.9109  162.7177 C.3     1  UNL1        0.0896
     11 N         144.2342  142.5788  163.4037 N.3     1  UNL1       -0.2711
     12 C         144.9706  141.4021  162.8355 C.3     1  UNL1        0.0722
     13 C         144.8990  140.0700  163.5214 C.3     1  UNL1        0.0178
     14 C         144.0910  139.9148  164.7756 C.3     1  UNL1        0.0103
     15 C         143.3546  141.0915  165.3439 C.3     1  UNL1        0.0729
     16 C         143.4262  142.4235  164.6579 C.3     1  UNL1        0.0796
     17 C         140.1953  140.2899  165.5034 C.3     1  UNL1        0.1339
     18 C         139.4202  141.4075  164.8710 C.ar    1  UNL1        0.0006
     19 C         138.2484  141.1007  163.9861 C.ar    1  UNL1       -0.0001
     20 C         137.4732  142.2184  163.3536 C.ar    1  UNL1        0.0294
     21 C         137.8699  143.6428  163.6060 C.ar    1  UNL1        0.1401
     22 F         137.0947  144.7604  162.9735 F       1  UNL1       -0.2042
     23 C         139.0416  143.9496  164.4908 C.ar    1  UNL1        0.0294
     24 C         139.8168  142.8319  165.1233 C.ar    1  UNL1       -0.0001
@<TRIPOS>BOND
     1    10    11    1
     2    11    12    1
     3    12    13    1
     4    13    14    1
     5    14    15    1
     6    15     1    1
     7     1     2   ar
     8     2     3   ar
     9     3     4   ar
    10     4     5   ar
    11     5     6   ar
    12     6     7   ar
    13     7     8   ar
    14     8     9   ar
    15     9    17    1
    16    17    18    1
    17    18    19   ar
    18    19    20   ar
    19    20    21   ar
    20    21    22    1
    21    21    23   ar
    22    23    24   ar
    23    15    16    1
    24    16    11    1
    25     9     1   ar
    26    24    18   ar
    27     8     3   ar
@<TRIPOS>MOLECULE
*****
 24 27 0 0 0
SMALL
GASTEIGER

@<TRIPOS>ATOM
      1 C         140.9912  140.6527  166.7039 C.ar    1  UNL1        0.1215
      2 N         140.0918  139.4544  166.7756 N.ar    1  UNL1       -0.2309
      3 C         139.8402  138.9791  165.3754 C.ar    1  UNL1        0.0983
      4 C         139.0298  137.8395  164.8327 C.ar    1  UNL1        0.0206
      5 C         138.9634  137.6044  163.3527 C.ar    1  UNL1        0.0016
      6 C         139.7074  138.5089  162.4155 C.ar    1  UNL1        0.0016
      7 C         140.5177  139.6485  162.9582 C.ar    1  UNL1        0.0188
      8 C         140.5842  139.8836  164.4381 C.ar    1  UNL1        0.0789
      9 N         141.2955  140.9179  165.2592 N.ar    1  UNL1       -0.3106
     10 C         140.3389  144.4606  170.1787 C.3     1  UNL1        0.0896
     11 N         141.1713  143.3503  169.6091 N.3     1  UNL1       -0.2711
     12 C         142.5099  143.0338  170.2073 C.3     1  UNL1        0.0722
     13 C         143.3423  141.9236  169.6377 C.3     1  UNL1        0.0178
     14 C         142.8361  141.1299  168.4699 C.3     1  UNL1        0.0103
     15 C         141.4975  141.4464  167.8717 C.3     1  UNL1        0.0729
     16 C         140.6651  142.5566  168.4413 C.3     1  UNL1        0.0796
     17 C         142.1595  142.0234  164.7287 C.3     1  UNL1        0.1339
     18 C         141.5369  143.1808  164.0058 C.ar    1  UNL1        0.0006
     19 C         140.2794  143.8059  164.5333 C.ar    1  UNL1       -0.0001
     20 C         139.6567  144.9633  163.8104 C.ar    1  UNL1        0.0294
     21 C         140.2915  145.4957  162.5599 C.ar    1  UNL1        0.1401
     22 F         139.6688  146.6531  161.8370 F       1  UNL1       -0.2042
     23 C         141.5488  144.8706  162.0324 C.ar    1  UNL1        0.0294
     24 C         142.1715  143.7132  162.7553 C.ar    1  UNL1       -0.0001
@<TRIPOS>BOND
     1    10    11    1
     2    11    12    1
     3    12    13    1
     4    13    14    1
     5    14    15    1
     6    15     1    1
     7     1     2   ar
     8     2     3   ar
     9     3     4   ar
    10     4     5   ar
    11     5     6   ar
    12     6     7   ar
    13     7     8   ar
    14     8     9   ar
    15     9    17    1
    16    17    18    1
    17    18    19   ar
    18    19    20   ar
    19    20    21   ar
    20    21    22    1
    21    21    23   ar
    22    23    24   ar
    23    15    16    1
    24    16    11    1
    25     9     1   ar
    26    24    18   ar
    27     8     3   ar
@<TRIPOS>MOLECULE
*****
 24 27 0 0 0
SMALL
GASTEIGER

@<TRIPOS>ATOM
      1 C         142.6874  140.0439  165.8650 C.ar    1  UNL1        0.1215
      2 N         142.7069  139.0811  167.0151 N.ar    1  UNL1       -0.2309
      3 C         142.5772  139.8713  168.2834 C.ar    1  UNL1        0.0983
      4 C         142.5370  139.4569  169.7245 C.ar    1  UNL1        0.0206
      5 C         142.3971  140.4937  170.7993 C.ar    1  UNL1        0.0016
      6 C         142.2973  141.9449  170.4332 C.ar    1  UNL1        0.0016
      7 C         142.3375  142.3593  168.9922 C.ar    1  UNL1        0.0188
      8 C         142.4774  141.3225  167.9173 C.ar    1  UNL1        0.0789
      9 N         142.5455  141.4291  166.4226 N.ar    1  UNL1       -0.3106
     10 C         140.4140  138.7441  161.3770 C.3     1  UNL1        0.0896
     11 N         141.6547  139.0346  162.1684 N.3     1  UNL1       -0.2711
     12 C         142.9993  138.9658  161.5072 C.3     1  UNL1        0.0722
     13 C         144.2400  139.2563  162.2986 C.3     1  UNL1        0.0178
     14 C         144.1360  139.6157  163.7512 C.3     1  UNL1        0.0103
     15 C         142.7913  139.6845  164.4124 C.3     1  UNL1        0.0729
     16 C         141.5507  139.3940  163.6210 C.3     1  UNL1        0.0796
     17 C         142.4828  142.6983  165.6255 C.3     1  UNL1        0.1339
     18 C         141.1783  143.1535  165.0416 C.ar    1  UNL1        0.0006
     19 C         141.1298  144.3804  164.1799 C.ar    1  UNL1       -0.0001
     20 C         139.8253  144.8357  163.5959 C.ar    1  UNL1        0.0294
     21 C         138.5693  144.0641  163.8736 C.ar    1  UNL1        0.1401
     22 F         137.2648  144.5194  163.2896 F       1  UNL1       -0.2042
     23 C         138.6178  142.8372  164.7352 C.ar    1  UNL1        0.0294
     24 C         139.9223  142.3819  165.3192 C.ar    1  UNL1       -0.0001
@<TRIPOS>BOND
     1    10    11    1
     2    11    12    1
     3    12    13    1
     4    13    14    1
     5    14    15    1
     6    15     1    1
     7     1     2   ar
     8     2     3   ar
     9     3     4   ar
    10     4     5   ar
    11     5     6   ar
    12     6     7   ar
    13     7     8   ar
    14     8     9   ar
    15     9    17    1
    16    17    18    1
    17    18    19   ar
    18    19    20   ar
    19    20    21   ar
    20    21    22    1
    21    21    23   ar
    22    23    24   ar
    23    15    16    1
    24    16    11    1
    25     9     1   ar
    26    24    18   ar
    27     8     3   ar
@<TRIPOS>MOLECULE
*****
 24 27 0 0 0
SMALL
GASTEIGER

@<TRIPOS>ATOM
      1 C         142.1973  139.8209  166.4590 C.ar    1  UNL1        0.1215
      2 N         142.6454  139.1595  167.7285 N.ar    1  UNL1       -0.2309
      3 C         142.2287  140.0299  168.8769 C.ar    1  UNL1        0.0983
      4 C         142.4006  139.8853  170.3599 C.ar    1  UNL1        0.0206
      5 C         141.8669  140.9402  171.2832 C.ar    1  UNL1        0.0016
      6 C         141.1613  142.1396  170.7234 C.ar    1  UNL1        0.0016
      7 C         140.9893  142.2842  169.2403 C.ar    1  UNL1        0.0188
      8 C         141.5230  141.2294  168.3171 C.ar    1  UNL1        0.0789
      9 N         141.5036  141.1001  166.8228 N.ar    1  UNL1       -0.3106
     10 C         140.2799  137.7547  162.0938 C.3     1  UNL1        0.0896
     11 N         141.4475  138.2622  162.8871 N.3     1  UNL1       -0.2711
     12 C         142.8238  138.2442  162.2911 C.3     1  UNL1        0.0722
     13 C         143.9913  138.7517  163.0844 C.3     1  UNL1        0.0178
     14 C         143.7825  139.2773  164.4737 C.3     1  UNL1        0.0103
     15 C         142.4061  139.2953  165.0697 C.3     1  UNL1        0.0729
     16 C         141.2386  138.7878  164.2764 C.3     1  UNL1        0.0796
     17 C         140.8970  142.0785  165.8611 C.3     1  UNL1        0.1339
     18 C         141.7703  143.0642  165.1431 C.ar    1  UNL1        0.0006
     19 C         143.2623  142.9141  165.1848 C.ar    1  UNL1       -0.0001
     20 C         144.1357  143.8998  164.4669 C.ar    1  UNL1        0.0294
     21 C         143.5172  145.0357  163.7072 C.ar    1  UNL1        0.1401
     22 F         144.3906  146.0214  162.9892 F       1  UNL1       -0.2042
     23 C         142.0253  145.1859  163.6654 C.ar    1  UNL1        0.0294
     24 C         141.1519  144.2001  164.3834 C.ar    1  UNL1       -0.0001
@<TRIPOS>BOND
     1    10    11    1
     2    11    12    1
     3    12    13    1
     4    13    14    1
     5    14    15    1
     6    15     1    1
     7     1     2   ar
     8     2     3   ar
     9     3     4   ar
    10     4     5   ar
    11     5     6   ar
    12     6     7   ar
    13     7     8   ar
    14     8     9   ar
    15     9    17    1
    16    17    18    1
    17    18    19   ar
    18    19    20   ar
    19    20    21   ar
    20    21    22    1
    21    21    23   ar
    22    23    24   ar
    23    15    16    1
    24    16    11    1
    25     9     1   ar
    26    24    18   ar
    27     8     3   ar
