@<TRIPOS>MOLECULE
*****
 21 22 0 0 0
SMALL
GASTEIGER

@<TRIPOS>ATOM
      1 C         142.6329  138.5800  164.8634 C.3     1  UNL1        0.0947
      2 C         141.6802  137.4214  164.8573 C.3     1  UNL1        0.0154
      3 C         142.0869  138.0647  163.5648 C.3     1  UNL1        0.0287
      4 C         143.5005  139.6941  164.3574 C.ar    1  UNL1        0.0149
      5 C         144.9865  139.6350  164.1617 C.ar    1  UNL1        0.0031
      6 C         145.4388  140.9672  163.6417 C.ar    1  UNL1        0.0072
      7 C         144.2324  141.8497  163.5160 C.ar    1  UNL1        0.0351
      8 S         143.0345  141.0629  163.9584 S.2     1  UNL1       -0.0903
      9 C         142.0065  138.1387  162.0688 C.3     1  UNL1        0.0659
     10 N         142.9698  137.3562  161.2263 N.3     1  UNL1       -0.3211
     11 H         143.9136  137.7175  161.3646 H       1  UNL1        0.1189
     12 H         142.7122  137.4455  160.2435 H       1  UNL1        0.1189
     13 N         141.9484  139.5278  167.1836 N.am    1  UNL1       -0.2559
     14 C         142.8775  138.7084  166.3377 C.2     1  UNL1        0.2305
     15 O         144.0512  138.0173  166.9662 O.2     1  UNL1       -0.2745
     16 C         142.1931  139.6561  168.6580 C.3     1  UNL1        0.1723
     17 C         143.5743  142.0882  169.7431 C.1     1  UNL1       -0.0124
     18 C         142.8837  140.8721  169.2005 C.1     1  UNL1       -0.0556
     19 C         140.7748  140.2188  166.5552 C.3     1  UNL1        0.1723
     20 C         139.4188  139.5784  166.5930 C.1     1  UNL1       -0.0556
     21 C         138.0629  138.9381  166.6307 C.1     1  UNL1       -0.0124
@<TRIPOS>BOND
     1    17    18    3
     2    18    16    1
     3    16    13    1
     4    13    19    1
     5    19    20    1
     6    20    21    3
     7    13    14   am
     8    14    15    2
     9     1    14    1
    10     1     4    1
    11     4     5   ar
    12     5     6   ar
    13     6     7   ar
    14     7     8   ar
    15     1     2    1
    16     2     3    1
    17     3     9    1
    18     9    10    1
    19     3     1    1
    20     8     4   ar
    21    10    11    1
    22    10    12    1
@<TRIPOS>MOLECULE
*****
 21 22 0 0 0
SMALL
GASTEIGER

@<TRIPOS>ATOM
      1 C         140.5939  140.8186  167.6905 C.3     1  UNL1        0.0947
      2 C         139.4342  140.0217  167.1708 C.3     1  UNL1        0.0154
      3 C         139.5260  140.3466  168.6323 C.3     1  UNL1        0.0287
      4 C         141.4908  141.5384  168.6535 C.ar    1  UNL1        0.0149
      5 C         141.2117  142.8653  169.2951 C.ar    1  UNL1        0.0031
      6 C         142.3728  143.2046  170.1820 C.ar    1  UNL1        0.0072
      7 C         143.3695  142.0876  170.0886 C.ar    1  UNL1        0.0351
      8 S         142.8244  141.0578  169.1439 S.2     1  UNL1       -0.0903
      9 C         138.9625  140.2618  170.0198 C.3     1  UNL1        0.0659
     10 N         139.7271  139.5523  171.0978 N.3     1  UNL1       -0.3211
     11 H         139.7847  138.5583  170.8758 H       1  UNL1        0.1189
     12 H         139.2489  139.6742  171.9904 H       1  UNL1        0.1189
     13 N         141.0790  142.2602  165.5843 N.am    1  UNL1       -0.2559
     14 C         141.3502  141.0406  166.4144 C.2     1  UNL1        0.2305
     15 O         142.3777  140.0429  165.9683 O.2     1  UNL1       -0.2745
     16 C         141.8354  142.4821  164.3080 C.3     1  UNL1        0.1723
     17 C         143.3982  145.0120  163.9114 C.1     1  UNL1       -0.0124
     18 C         142.6168  143.7470  164.1096 C.1     1  UNL1       -0.0556
     19 C         140.0515  143.2578  166.0303 C.3     1  UNL1        0.1723
     20 C         138.9705  143.6942  165.0864 C.1     1  UNL1       -0.0556
     21 C         137.8895  144.1307  164.1425 C.1     1  UNL1       -0.0124
@<TRIPOS>BOND
     1    17    18    3
     2    18    16    1
     3    16    13    1
     4    13    19    1
     5    19    20    1
     6    20    21    3
     7    13    14   am
     8    14    15    2
     9     1    14    1
    10     1     4    1
    11     4     5   ar
    12     5     6   ar
    13     6     7   ar
    14     7     8   ar
    15     1     2    1
    16     2     3    1
    17     3     9    1
    18     9    10    1
    19     3     1    1
    20     8     4   ar
    21    10    11    1
    22    10    12    1
@<TRIPOS>MOLECULE
*****
 21 22 0 0 0
SMALL
GASTEIGER

@<TRIPOS>ATOM
      1 C         139.5333  140.4325  166.2871 C.3     1  UNL1        0.0947
      2 C         139.8672  139.8227  167.6162 C.3     1  UNL1        0.0154
      3 C         138.7498  139.2569  166.7910 C.3     1  UNL1        0.0287
      4 C         138.8441  140.6616  164.9746 C.ar    1  UNL1        0.0149
      5 C         137.9618  141.8258  164.6335 C.ar    1  UNL1        0.0031
      6 C         137.4887  141.6504  163.2209 C.ar    1  UNL1        0.0072
      7 C         138.0785  140.3779  162.6890 C.ar    1  UNL1        0.0351
      8 S         138.9162  139.7668  163.7729 S.2     1  UNL1       -0.0903
      9 C         137.6523  138.2514  166.6054 C.3     1  UNL1        0.0659
     10 N         136.8764  137.7605  167.7916 N.3     1  UNL1       -0.3211
     11 H         137.4935  137.2283  168.4050 H       1  UNL1        0.1189
     12 H         136.1133  137.1623  167.4749 H       1  UNL1        0.1189
     13 N         141.8962  141.2770  165.6136 N.am    1  UNL1       -0.2559
     14 C         140.5561  141.5286  166.2390 C.2     1  UNL1        0.2305
     15 O         140.2390  142.8763  166.8164 O.2     1  UNL1       -0.2745
     16 C         142.9190  142.3732  165.5656 C.3     1  UNL1        0.1723
     17 C         145.4363  142.0071  163.9751 C.1     1  UNL1       -0.0124
     18 C         144.1776  142.1902  164.7703 C.1     1  UNL1       -0.0556
     19 C         142.2134  139.9295  165.0363 C.3     1  UNL1        0.1723
     20 C         143.0265  138.9474  165.8265 C.1     1  UNL1       -0.0556
     21 C         143.8396  137.9654  166.6168 C.1     1  UNL1       -0.0124
@<TRIPOS>BOND
     1    17    18    3
     2    18    16    1
     3    16    13    1
     4    13    19    1
     5    19    20    1
     6    20    21    3
     7    13    14   am
     8    14    15    2
     9     1    14    1
    10     1     4    1
    11     4     5   ar
    12     5     6   ar
    13     6     7   ar
    14     7     8   ar
    15     1     2    1
    16     2     3    1
    17     3     9    1
    18     9    10    1
    19     3     1    1
    20     8     4   ar
    21    10    11    1
    22    10    12    1
@<TRIPOS>MOLECULE
*****
 21 22 0 0 0
SMALL
GASTEIGER

@<TRIPOS>ATOM
      1 C         139.8222  139.6781  165.8721 C.3     1  UNL1        0.0947
      2 C         139.2334  140.1531  167.1673 C.3     1  UNL1        0.0154
      3 C         138.7408  138.8824  166.5409 C.3     1  UNL1        0.0287
      4 C         140.0647  138.8237  164.6633 C.ar    1  UNL1        0.0149
      5 C         141.0103  137.6622  164.5799 C.ar    1  UNL1        0.0031
      6 C         140.9341  137.1014  163.1907 C.ar    1  UNL1        0.0072
      7 C         139.9415  137.9163  162.4156 C.ar    1  UNL1        0.0351
      8 S         139.4042  138.9807  163.3258 S.2     1  UNL1       -0.0903
      9 C         137.8320  137.6893  166.5652 C.3     1  UNL1        0.0659
     10 N         136.7621  137.5826  167.6112 N.3     1  UNL1       -0.3211
     11 H         137.1938  137.4872  168.5305 H       1  UNL1        0.1189
     12 H         136.1816  136.7656  167.4217 H       1  UNL1        0.1189
     13 N         142.2166  140.6461  166.1550 N.am    1  UNL1       -0.2559
     14 C         140.8195  140.7706  165.6232 C.2     1  UNL1        0.2305
     15 O         140.4197  141.9874  164.8425 O.2     1  UNL1       -0.2745
     16 C         143.2138  141.7387  165.9060 C.3     1  UNL1        0.1723
     17 C         145.3316  141.3875  163.8103 C.1     1  UNL1       -0.0124
     18 C         144.2727  141.5631  164.8582 C.1     1  UNL1       -0.0556
     19 C         142.6164  139.4293  166.9356 C.3     1  UNL1        0.1723
     20 C         142.5291  139.4367  168.4331 C.1     1  UNL1       -0.0556
     21 C         142.4419  139.4440  169.9305 C.1     1  UNL1       -0.0124
@<TRIPOS>BOND
     1    17    18    3
     2    18    16    1
     3    16    13    1
     4    13    19    1
     5    19    20    1
     6    20    21    3
     7    13    14   am
     8    14    15    2
     9     1    14    1
    10     1     4    1
    11     4     5   ar
    12     5     6   ar
    13     6     7   ar
    14     7     8   ar
    15     1     2    1
    16     2     3    1
    17     3     9    1
    18     9    10    1
    19     3     1    1
    20     8     4   ar
    21    10    11    1
    22    10    12    1
@<TRIPOS>MOLECULE
*****
 21 22 0 0 0
SMALL
GASTEIGER

@<TRIPOS>ATOM
      1 C         139.4048  139.7676  165.5329 C.3     1  UNL1        0.0947
      2 C         139.6095  139.7864  167.0188 C.3     1  UNL1        0.0154
      3 C         138.6841  138.7800  166.4019 C.3     1  UNL1        0.0287
      4 C         138.8874  139.3561  164.1865 C.ar    1  UNL1        0.0149
      5 C         139.0663  138.0114  163.5465 C.ar    1  UNL1        0.0031
      6 C         138.3897  138.0414  162.2081 C.ar    1  UNL1        0.0072
      7 C         137.7927  139.4047  162.0209 C.ar    1  UNL1        0.0351
      8 S         138.1003  140.2173  163.2436 S.2     1  UNL1       -0.0903
      9 C         137.7336  137.6287  166.5474 C.3     1  UNL1        0.0659
     10 N         136.7273  137.6228  167.6597 N.3     1  UNL1       -0.3211
     11 H         137.2110  137.5591  168.5555 H       1  UNL1        0.1189
     12 H         136.1054  136.8217  167.5514 H       1  UNL1        0.1189
     13 N         141.6818  140.6113  164.6092 N.am    1  UNL1       -0.2559
     14 C         140.3053  140.8981  165.1317 C.2     1  UNL1        0.2305
     15 O         139.8292  142.3154  165.2529 O.2     1  UNL1       -0.2745
     16 C         142.5823  141.7420  164.2079 C.3     1  UNL1        0.1723
     17 C         145.5280  141.2723  163.8886 C.1     1  UNL1       -0.0124
     18 C         144.0552  141.5072  164.0482 C.1     1  UNL1       -0.0556
     19 C         142.1579  139.1941  164.4879 C.3     1  UNL1        0.1723
     20 C         142.9894  138.5863  165.5784 C.1     1  UNL1       -0.0556
     21 C         143.8210  137.9784  166.6688 C.1     1  UNL1       -0.0124
@<TRIPOS>BOND
     1    17    18    3
     2    18    16    1
     3    16    13    1
     4    13    19    1
     5    19    20    1
     6    20    21    3
     7    13    14   am
     8    14    15    2
     9     1    14    1
    10     1     4    1
    11     4     5   ar
    12     5     6   ar
    13     6     7   ar
    14     7     8   ar
    15     1     2    1
    16     2     3    1
    17     3     9    1
    18     9    10    1
    19     3     1    1
    20     8     4   ar
    21    10    11    1
    22    10    12    1
@<TRIPOS>MOLECULE
*****
 21 22 0 0 0
SMALL
GASTEIGER

@<TRIPOS>ATOM
      1 C         140.6430  141.1705  167.6047 C.3     1  UNL1        0.0947
      2 C         139.4560  140.4286  167.0656 C.3     1  UNL1        0.0154
      3 C         139.6997  140.4803  168.5447 C.3     1  UNL1        0.0287
      4 C         141.6204  141.7415  168.5889 C.ar    1  UNL1        0.0149
      5 C         142.9990  141.2196  168.8664 C.ar    1  UNL1        0.0031
      6 C         143.6213  142.0902  169.9175 C.ar    1  UNL1        0.0072
      7 C         142.6272  143.1501  170.2896 C.ar    1  UNL1        0.0351
      8 S         141.3906  142.9346  169.4685 S.2     1  UNL1       -0.0903
      9 C         139.2959  140.1116  169.9415 C.3     1  UNL1        0.0659
     10 N         140.2860  139.4610  170.8615 N.3     1  UNL1       -0.3211
     11 H         140.5262  138.5366  170.5037 H       1  UNL1        0.1189
     12 H         139.8772  139.3699  171.7915 H       1  UNL1        0.1189
     13 N         142.0919  140.7437  165.4907 N.am    1  UNL1       -0.2559
     14 C         141.2469  141.6624  166.3227 C.2     1  UNL1        0.2305
     15 O         141.0057  143.0728  165.8728 O.2     1  UNL1       -0.2745
     16 C         142.6957  141.2357  164.2087 C.3     1  UNL1        0.1723
     17 C         145.6778  141.3713  163.9105 C.1     1  UNL1       -0.0124
     18 C         144.1867  141.3035  164.0596 C.1     1  UNL1       -0.0556
     19 C         142.3330  139.3333  165.9406 C.3     1  UNL1        0.1723
     20 C         141.7603  138.1883  165.1589 C.1     1  UNL1       -0.0556
     21 C         141.1875  137.0434  164.3772 C.1     1  UNL1       -0.0124
@<TRIPOS>BOND
     1    17    18    3
     2    18    16    1
     3    16    13    1
     4    13    19    1
     5    19    20    1
     6    20    21    3
     7    13    14   am
     8    14    15    2
     9     1    14    1
    10     1     4    1
    11     4     5   ar
    12     5     6   ar
    13     6     7   ar
    14     7     8   ar
    15     1     2    1
    16     2     3    1
    17     3     9    1
    18     9    10    1
    19     3     1    1
    20     8     4   ar
    21    10    11    1
    22    10    12    1
@<TRIPOS>MOLECULE
*****
 21 22 0 0 0
SMALL
GASTEIGER

@<TRIPOS>ATOM
      1 C         139.4594  138.9006  164.4172 C.3     1  UNL1        0.0947
      2 C         139.7621  137.5286  164.9425 C.3     1  UNL1        0.0154
      3 C         138.7326  138.3817  165.6223 C.3     1  UNL1        0.0287
      4 C         138.8281  140.2559  164.2958 C.ar    1  UNL1        0.0149
      5 C         139.1198  141.4452  165.1621 C.ar    1  UNL1        0.0031
      6 C         138.2662  142.5841  164.6885 C.ar    1  UNL1        0.0072
      7 C         137.4470  142.0987  163.5295 C.ar    1  UNL1        0.0351
      8 S         137.7943  140.6597  163.2868 S.2     1  UNL1       -0.0903
      9 C         137.7185  138.5746  166.7106 C.3     1  UNL1        0.0659
     10 N         137.0181  137.3874  167.3022 N.3     1  UNL1       -0.3211
     11 H         136.4271  136.9532  166.5933 H       1  UNL1        0.1189
     12 H         136.4412  137.6893  168.0873 H       1  UNL1        0.1189
     13 N         141.8049  139.4538  163.4463 N.am    1  UNL1       -0.2559
     14 C         140.4055  138.9489  163.2542 C.2     1  UNL1        0.2305
     15 O         139.9523  138.4922  161.8992 O.2     1  UNL1       -0.2745
     16 C         142.7510  139.5021  162.2832 C.3     1  UNL1        0.1723
     17 C         144.9719  141.5184  162.2391 C.1     1  UNL1       -0.0124
     18 C         143.8615  140.5102  162.2612 C.1     1  UNL1       -0.0556
     19 C         142.2582  139.9105  164.8012 C.3     1  UNL1        0.1723
     20 C         143.0433  138.9837  165.6813 C.1     1  UNL1       -0.0556
     21 C         143.8285  138.0569  166.5613 C.1     1  UNL1       -0.0124
@<TRIPOS>BOND
     1    17    18    3
     2    18    16    1
     3    16    13    1
     4    13    19    1
     5    19    20    1
     6    20    21    3
     7    13    14   am
     8    14    15    2
     9     1    14    1
    10     1     4    1
    11     4     5   ar
    12     5     6   ar
    13     6     7   ar
    14     7     8   ar
    15     1     2    1
    16     2     3    1
    17     3     9    1
    18     9    10    1
    19     3     1    1
    20     8     4   ar
    21    10    11    1
    22    10    12    1
@<TRIPOS>MOLECULE
*****
 21 22 0 0 0
SMALL
GASTEIGER

@<TRIPOS>ATOM
      1 C         142.5694  140.3410  166.9560 C.3     1  UNL1        0.0947
      2 C         142.5787  139.6174  168.2699 C.3     1  UNL1        0.0154
      3 C         142.7938  141.1013  168.2294 C.3     1  UNL1        0.0287
      4 C         142.6475  141.4641  165.9648 C.ar    1  UNL1        0.0149
      5 C         141.5667  142.4640  165.6785 C.ar    1  UNL1        0.0031
      6 C         142.0713  143.4024  164.6226 C.ar    1  UNL1        0.0072
      7 C         143.4640  142.9823  164.2563 C.ar    1  UNL1        0.0351
      8 S         143.8200  141.7844  165.0859 S.2     1  UNL1       -0.0903
      9 C         143.0475  142.3970  168.9412 C.3     1  UNL1        0.0659
     10 N         144.1438  142.4905  169.9607 N.3     1  UNL1       -0.3211
     11 H         143.9164  141.8986  170.7597 H       1  UNL1        0.1189
     12 H         144.2386  143.4578  170.2703 H       1  UNL1        0.1189
     13 N         140.9128  138.8220  165.6527 N.am    1  UNL1       -0.2559
     14 C         142.3179  139.1905  166.0269 C.2     1  UNL1        0.2305
     15 O         143.4715  138.4086  165.4720 O.2     1  UNL1       -0.2745
     16 C         140.6613  137.6716  164.7236 C.3     1  UNL1        0.1723
     17 C         138.6354  137.9332  162.5265 C.1     1  UNL1       -0.0124
     18 C         139.6484  137.8024  163.6251 C.1     1  UNL1       -0.0556
     19 C         139.7593  139.6039  166.2076 C.3     1  UNL1        0.1723
     20 C         138.5467  138.8875  166.7239 C.1     1  UNL1       -0.0556
     21 C         137.3342  138.1712  167.2403 C.1     1  UNL1       -0.0124
@<TRIPOS>BOND
     1    17    18    3
     2    18    16    1
     3    16    13    1
     4    13    19    1
     5    19    20    1
     6    20    21    3
     7    13    14   am
     8    14    15    2
     9     1    14    1
    10     1     4    1
    11     4     5   ar
    12     5     6   ar
    13     6     7   ar
    14     7     8   ar
    15     1     2    1
    16     2     3    1
    17     3     9    1
    18     9    10    1
    19     3     1    1
    20     8     4   ar
    21    10    11    1
    22    10    12    1
@<TRIPOS>MOLECULE
*****
 21 22 0 0 0
SMALL
GASTEIGER

@<TRIPOS>ATOM
      1 C         142.9967  141.3974  164.7936 C.3     1  UNL1        0.0947
      2 C         143.6919  142.4276  165.6334 C.3     1  UNL1        0.0154
      3 C         144.4434  141.7109  164.5511 C.3     1  UNL1        0.0287
      4 C         142.7775  140.3496  163.7428 C.ar    1  UNL1        0.0149
      5 C         143.1017  138.8907  163.8713 C.ar    1  UNL1        0.0031
      6 C         142.7202  138.2163  162.5869 C.ar    1  UNL1        0.0072
      7 C         142.1602  139.2584  161.6647 C.ar    1  UNL1        0.0351
      8 S         142.1956  140.5769  162.3791 S.2     1  UNL1       -0.0903
      9 C         145.7125  141.4780  163.7862 C.3     1  UNL1        0.0659
     10 N         145.8562  142.0113  162.3915 N.3     1  UNL1       -0.3211
     11 H         145.1963  141.5359  161.7760 H       1  UNL1        0.1189
     12 H         146.8074  141.8479  162.0614 H       1  UNL1        0.1189
     13 N         141.2920  140.5716  166.5718 N.am    1  UNL1       -0.2559
     14 C         141.6262  141.4478  165.4010 C.2     1  UNL1        0.2305
     15 O         140.5897  142.3745  164.8377 O.2     1  UNL1       -0.2745
     16 C         139.9214  140.6221  167.1793 C.3     1  UNL1        0.1723
     17 C         137.9490  138.4333  166.6144 C.1     1  UNL1       -0.0124
     18 C         138.9352  139.5278  166.8968 C.1     1  UNL1       -0.0556
     19 C         142.3284  139.6450  167.1351 C.3     1  UNL1        0.1723
     20 C         142.4061  139.4180  168.6158 C.1     1  UNL1       -0.0556
     21 C         142.4839  139.1908  170.0965 C.1     1  UNL1       -0.0124
@<TRIPOS>BOND
     1    17    18    3
     2    18    16    1
     3    16    13    1
     4    13    19    1
     5    19    20    1
     6    20    21    3
     7    13    14   am
     8    14    15    2
     9     1    14    1
    10     1     4    1
    11     4     5   ar
    12     5     6   ar
    13     6     7   ar
    14     7     8   ar
    15     1     2    1
    16     2     3    1
    17     3     9    1
    18     9    10    1
    19     3     1    1
    20     8     4   ar
    21    10    11    1
    22    10    12    1
