@<TRIPOS>MOLECULE
*****
 33 37 0 0 0
SMALL
GASTEIGER

@<TRIPOS>ATOM
      1 C         138.3288  141.2617  158.4000 C.ar    1  UNL1        0.1098
      2 C         138.5763  142.2593  159.4926 C.ar    1  UNL1        0.0891
      3 N         139.6669  142.0195  160.4941 N.ar    1  UNL1       -0.2900
      4 C         140.5100  140.7821  160.4031 C.ar    1  UNL1        0.1507
      5 N         141.6006  140.5424  161.4047 N.ar    1  UNL1       -0.2263
      6 C         142.4436  139.3051  161.3137 C.ar    1  UNL1        0.1005
      7 C         142.1961  138.3075  160.2211 C.ar    1  UNL1        0.0209
      8 C         141.1056  138.5473  159.2196 C.ar    1  UNL1        0.0078
      9 C         140.2625  139.7846  159.3106 C.ar    1  UNL1        0.0736
     10 C         139.1719  140.0244  158.3090 C.ar    1  UNL1        0.2043
     11 O         138.9244  139.0269  157.2164 O.2     1  UNL1       -0.2863
     12 C         139.9144  143.0170  161.5867 C.ar    1  UNL1        0.0660
     13 C         140.0192  144.4771  161.2595 C.ar    1  UNL1        0.0176
     14 C         140.2668  145.4746  162.3521 C.ar    1  UNL1        0.0021
     15 C         140.4094  145.0120  163.7718 C.ar    1  UNL1        0.0083
     16 C         140.3046  143.5519  164.0990 C.ar    1  UNL1        0.0434
     17 C         140.0571  142.5543  163.0065 C.ar    1  UNL1        0.0258
     18 C         140.4473  143.0893  165.5187 C.1     1  UNL1       -0.0595
     19 C         140.5899  142.6267  166.9384 C.1     1  UNL1       -0.0535
     20 C         140.7326  142.1641  168.3582 C.ar    1  UNL1        0.1130
     21 C         141.7915  142.7595  169.2382 C.ar    1  UNL1        0.0209
     22 C         141.9342  142.2970  170.6579 C.ar    1  UNL1        0.0778
     23 C         141.0180  141.2391  171.1978 C.ar    1  UNL1        0.3018
     24 N         139.9591  140.6437  170.3178 N.ar    1  UNL1       -0.1514
     25 O         139.0429  139.5858  170.8576 O.co2   1  UNL1       -0.6187
     26 C         139.8164  141.1062  168.8980 C.ar    1  UNL1        0.3099
     27 O         137.1199  142.8359  156.7235 O.2     1  UNL1       -0.2700
     28 C         137.2382  141.5016  157.3984 C.2     1  UNL1        0.2504
     29 N         136.2659  140.4071  157.0719 N.am    1  UNL1       -0.3024
     30 H         136.3435  139.5313  157.5149 H       1  UNL1        0.1497
     31 C         135.1753  140.6468  156.0704 C.3     1  UNL1        0.0720
     32 C         133.7183  140.7982  155.7477 C.3     1  UNL1        0.0213
     33 C         134.7433  140.9107  154.6584 C.3     1  UNL1        0.0213
@<TRIPOS>UNITY_ATOM_ATTR
24 1
charge 1
25 1
charge -1
@<TRIPOS>BOND
     1    27    28    2
     2    28    29   am
     3    29    31    1
     4    31    32    1
     5    32    33    1
     6    28     1    1
     7     1     2   ar
     8     2     3   ar
     9     3    12    1
    10    12    13   ar
    11    13    14   ar
    12    14    15   ar
    13    15    16   ar
    14    16    18    1
    15    18    19    3
    16    19    20    1
    17    20    21   ar
    18    21    22   ar
    19    22    23   ar
    20    23    24   ar
    21    24    25    1
    22    24    26   ar
    23    16    17   ar
    24     3     4   ar
    25     4     5   ar
    26     5     6   ar
    27     6     7   ar
    28     7     8   ar
    29     8     9   ar
    30     9    10   ar
    31    10    11    2
    32    33    31    1
    33    10     1   ar
    34    17    12   ar
    35     9     4   ar
    36    26    20   ar
    37    29    30    1
@<TRIPOS>MOLECULE
*****
 33 37 0 0 0
SMALL
GASTEIGER

@<TRIPOS>ATOM
      1 C         141.9971  140.1516  158.8370 C.ar    1  UNL1        0.1098
      2 C         141.1386  140.2377  160.0640 C.ar    1  UNL1        0.0891
      3 N         140.5512  141.5544  160.4776 N.ar    1  UNL1       -0.2900
      4 C         140.8224  142.7853  159.6641 C.ar    1  UNL1        0.1507
      5 N         140.2350  144.1020  160.0777 N.ar    1  UNL1       -0.2263
      6 C         140.5062  145.3328  159.2643 C.ar    1  UNL1        0.1005
      7 C         141.3648  145.2467  158.0373 C.ar    1  UNL1        0.0209
      8 C         141.9522  143.9299  157.6237 C.ar    1  UNL1        0.0078
      9 C         141.6810  142.6992  158.4371 C.ar    1  UNL1        0.0736
     10 C         142.2683  141.3823  158.0236 C.ar    1  UNL1        0.2043
     11 O         143.1269  141.2963  156.7966 O.2     1  UNL1       -0.2863
     12 C         139.6927  141.6405  161.7045 C.ar    1  UNL1        0.0660
     13 C         138.1983  141.6176  161.5774 C.ar    1  UNL1        0.0176
     14 C         137.3397  141.7037  162.8043 C.ar    1  UNL1        0.0021
     15 C         137.9755  141.8125  164.1585 C.ar    1  UNL1        0.0083
     16 C         139.4700  141.8354  164.2857 C.ar    1  UNL1        0.0434
     17 C         140.3286  141.7493  163.0588 C.ar    1  UNL1        0.0258
     18 C         140.1059  141.9442  165.6399 C.1     1  UNL1       -0.0595
     19 C         140.7417  142.0531  166.9941 C.1     1  UNL1       -0.0535
     20 C         141.3775  142.1620  168.3483 C.ar    1  UNL1        0.1130
     21 C         142.8673  142.2878  168.4694 C.ar    1  UNL1        0.0209
     22 C         143.5032  142.3967  169.8236 C.ar    1  UNL1        0.0778
     23 C         142.6492  142.3798  171.0567 C.ar    1  UNL1        0.3018
     24 N         141.1594  142.2541  170.9356 N.ar    1  UNL1       -0.1514
     25 O         140.3055  142.2372  172.1687 O.co2   1  UNL1       -0.6187
     26 C         140.5236  142.1451  169.5814 C.ar    1  UNL1        0.3099
     27 O         143.3466  138.0085  159.4166 O.2     1  UNL1       -0.2700
     28 C         142.5845  138.8348  158.4235 C.2     1  UNL1        0.2504
     29 N         142.4097  138.3442  157.0168 N.am    1  UNL1       -0.3024
     30 H         141.9095  138.8866  156.3649 H       1  UNL1        0.1497
     31 C         142.9970  137.0274  156.6032 C.3     1  UNL1        0.0720
     32 C         143.0557  135.5340  156.7303 C.3     1  UNL1        0.0213
     33 C         143.9556  136.2401  155.7599 C.3     1  UNL1        0.0213
@<TRIPOS>UNITY_ATOM_ATTR
24 1
charge 1
25 1
charge -1
@<TRIPOS>BOND
     1    27    28    2
     2    28    29   am
     3    29    31    1
     4    31    32    1
     5    32    33    1
     6    28     1    1
     7     1     2   ar
     8     2     3   ar
     9     3    12    1
    10    12    13   ar
    11    13    14   ar
    12    14    15   ar
    13    15    16   ar
    14    16    18    1
    15    18    19    3
    16    19    20    1
    17    20    21   ar
    18    21    22   ar
    19    22    23   ar
    20    23    24   ar
    21    24    25    1
    22    24    26   ar
    23    16    17   ar
    24     3     4   ar
    25     4     5   ar
    26     5     6   ar
    27     6     7   ar
    28     7     8   ar
    29     8     9   ar
    30     9    10   ar
    31    10    11    2
    32    33    31    1
    33    10     1   ar
    34    17    12   ar
    35     9     4   ar
    36    26    20   ar
    37    29    30    1
@<TRIPOS>MOLECULE
*****
 33 37 0 0 0
SMALL
GASTEIGER

@<TRIPOS>ATOM
      1 C         138.1138  141.4491  158.1832 C.ar    1  UNL1        0.1098
      2 C         138.1353  140.5124  159.3546 C.ar    1  UNL1        0.0891
      3 N         138.8984  140.8778  160.5932 N.ar    1  UNL1       -0.2900
      4 C         139.6400  142.1799  160.6604 C.ar    1  UNL1        0.1507
      5 N         140.4031  142.5454  161.8990 N.ar    1  UNL1       -0.2263
      6 C         141.1447  143.8474  161.9662 C.ar    1  UNL1        0.1005
      7 C         141.1233  144.7841  160.7948 C.ar    1  UNL1        0.0209
      8 C         140.3602  144.4187  159.5562 C.ar    1  UNL1        0.0078
      9 C         139.6186  143.1166  159.4890 C.ar    1  UNL1        0.0736
     10 C         138.8554  142.7511  158.2504 C.ar    1  UNL1        0.2043
     11 O         138.8339  143.6878  157.0790 O.2     1  UNL1       -0.2863
     12 C         138.9199  139.9411  161.7646 C.ar    1  UNL1        0.0660
     13 C         138.6292  138.4833  161.5646 C.ar    1  UNL1        0.0176
     14 C         138.6507  137.5466  162.7360 C.ar    1  UNL1        0.0021
     15 C         138.9629  138.0678  164.1074 C.ar    1  UNL1        0.0083
     16 C         139.2536  139.5258  164.3075 C.ar    1  UNL1        0.0434
     17 C         139.2321  140.4624  163.1361 C.ar    1  UNL1        0.0258
     18 C         139.5657  140.0470  165.6789 C.1     1  UNL1       -0.0595
     19 C         139.8779  140.5682  167.0503 C.1     1  UNL1       -0.0535
     20 C         140.1900  141.0894  168.4219 C.ar    1  UNL1        0.1130
     21 C         140.3793  140.1336  169.5623 C.ar    1  UNL1        0.0209
     22 C         140.6914  140.6548  170.9337 C.ar    1  UNL1        0.0778
     23 C         140.8143  142.1318  171.1648 C.ar    1  UNL1        0.3018
     24 N         140.6250  143.0877  170.0244 N.ar    1  UNL1       -0.1514
     25 O         140.7478  144.5646  170.2554 O.co2   1  UNL1       -0.6187
     26 C         140.3129  142.5664  168.6529 C.ar    1  UNL1        0.3099
     27 O         137.6375  139.7902  156.2412 O.2     1  UNL1       -0.2700
     28 C         137.3506  141.0836  156.9446 C.2     1  UNL1        0.2504
     29 N         136.3007  142.0116  156.4094 N.am    1  UNL1       -0.3024
     30 H         136.1124  142.8605  156.8711 H       1  UNL1        0.1497
     31 C         135.5375  141.6461  155.1709 C.3     1  UNL1        0.0720
     32 C         135.4690  141.5168  153.6781 C.3     1  UNL1        0.0213
     33 C         134.2843  141.1426  154.5184 C.3     1  UNL1        0.0213
@<TRIPOS>UNITY_ATOM_ATTR
24 1
charge 1
25 1
charge -1
@<TRIPOS>BOND
     1    27    28    2
     2    28    29   am
     3    29    31    1
     4    31    32    1
     5    32    33    1
     6    28     1    1
     7     1     2   ar
     8     2     3   ar
     9     3    12    1
    10    12    13   ar
    11    13    14   ar
    12    14    15   ar
    13    15    16   ar
    14    16    18    1
    15    18    19    3
    16    19    20    1
    17    20    21   ar
    18    21    22   ar
    19    22    23   ar
    20    23    24   ar
    21    24    25    1
    22    24    26   ar
    23    16    17   ar
    24     3     4   ar
    25     4     5   ar
    26     5     6   ar
    27     6     7   ar
    28     7     8   ar
    29     8     9   ar
    30     9    10   ar
    31    10    11    2
    32    33    31    1
    33    10     1   ar
    34    17    12   ar
    35     9     4   ar
    36    26    20   ar
    37    29    30    1
@<TRIPOS>MOLECULE
*****
 33 37 0 0 0
SMALL
GASTEIGER

@<TRIPOS>ATOM
      1 C         141.9389  139.8566  158.5232 C.ar    1  UNL1        0.1098
      2 C         142.6446  140.0340  159.8348 C.ar    1  UNL1        0.0891
      3 N         142.6774  141.3816  160.4927 N.ar    1  UNL1       -0.2900
      4 C         142.0045  142.5520  159.8388 C.ar    1  UNL1        0.1507
      5 N         142.0373  143.8996  160.4966 N.ar    1  UNL1       -0.2263
      6 C         141.3644  145.0699  159.8427 C.ar    1  UNL1        0.1005
      7 C         140.6586  144.8925  158.5311 C.ar    1  UNL1        0.0209
      8 C         140.6258  143.5449  157.8733 C.ar    1  UNL1        0.0078
      9 C         141.2987  142.3746  158.5271 C.ar    1  UNL1        0.0736
     10 C         141.2659  141.0269  157.8693 C.ar    1  UNL1        0.2043
     11 O         140.5602  140.8495  156.5576 O.2     1  UNL1       -0.2863
     12 C         143.3831  141.5589  161.8043 C.ar    1  UNL1        0.0660
     13 C         144.8794  141.6561  161.8438 C.ar    1  UNL1        0.0176
     14 C         145.5852  141.8334  163.1555 C.ar    1  UNL1        0.0021
     15 C         144.7946  141.9136  164.4277 C.ar    1  UNL1        0.0083
     16 C         143.2982  141.8165  164.3882 C.ar    1  UNL1        0.0434
     17 C         142.5925  141.6391  163.0766 C.ar    1  UNL1        0.0258
     18 C         142.5077  141.8967  165.6604 C.1     1  UNL1       -0.0595
     19 C         141.7171  141.9769  166.9326 C.1     1  UNL1       -0.0535
     20 C         140.9265  142.0571  168.2049 C.ar    1  UNL1        0.1130
     21 C         140.8963  143.3349  168.9898 C.ar    1  UNL1        0.0209
     22 C         140.1057  143.4152  170.2620 C.ar    1  UNL1        0.0778
     23 C         139.3452  142.2175  170.7493 C.ar    1  UNL1        0.3018
     24 N         139.3754  140.9396  169.9643 N.ar    1  UNL1       -0.1514
     25 O         138.6150  139.7420  170.4515 O.co2   1  UNL1       -0.6187
     26 C         140.1661  140.8594  168.6921 C.ar    1  UNL1        0.3099
     27 O         140.5977  137.8024  157.6678 O.2     1  UNL1       -0.2700
     28 C         141.9061  138.5089  157.8653 C.2     1  UNL1        0.2504
     29 N         143.1817  137.8677  157.4052 N.am    1  UNL1       -0.3024
     30 H         144.0404  138.3314  157.5349 H       1  UNL1        0.1497
     31 C         143.1489  136.5201  156.7474 C.3     1  UNL1        0.0720
     32 C         142.9328  135.6751  155.5270 C.3     1  UNL1        0.0213
     33 C         143.3083  135.0308  156.8284 C.3     1  UNL1        0.0213
@<TRIPOS>UNITY_ATOM_ATTR
24 1
charge 1
25 1
charge -1
@<TRIPOS>BOND
     1    27    28    2
     2    28    29   am
     3    29    31    1
     4    31    32    1
     5    32    33    1
     6    28     1    1
     7     1     2   ar
     8     2     3   ar
     9     3    12    1
    10    12    13   ar
    11    13    14   ar
    12    14    15   ar
    13    15    16   ar
    14    16    18    1
    15    18    19    3
    16    19    20    1
    17    20    21   ar
    18    21    22   ar
    19    22    23   ar
    20    23    24   ar
    21    24    25    1
    22    24    26   ar
    23    16    17   ar
    24     3     4   ar
    25     4     5   ar
    26     5     6   ar
    27     6     7   ar
    28     7     8   ar
    29     8     9   ar
    30     9    10   ar
    31    10    11    2
    32    33    31    1
    33    10     1   ar
    34    17    12   ar
    35     9     4   ar
    36    26    20   ar
    37    29    30    1
@<TRIPOS>MOLECULE
*****
 33 37 0 0 0
SMALL
GASTEIGER

@<TRIPOS>ATOM
      1 C         142.1849  138.4358  158.2856 C.ar    1  UNL1        0.1098
      2 C         141.1787  138.5195  159.3949 C.ar    1  UNL1        0.0891
      3 N         141.2034  139.6808  160.3439 N.ar    1  UNL1       -0.2900
      4 C         142.2344  140.7586  160.1836 C.ar    1  UNL1        0.1507
      5 N         142.2591  141.9199  161.1326 N.ar    1  UNL1       -0.2263
      6 C         143.2901  142.9976  160.9723 C.ar    1  UNL1        0.1005
      7 C         144.2963  142.9139  159.8631 C.ar    1  UNL1        0.0209
      8 C         144.2716  141.7526  158.9141 C.ar    1  UNL1        0.0078
      9 C         143.2406  140.6749  159.0743 C.ar    1  UNL1        0.0736
     10 C         143.2159  139.5135  158.1253 C.ar    1  UNL1        0.2043
     11 O         144.2221  139.4299  157.0160 O.2     1  UNL1       -0.2863
     12 C         140.1972  139.7645  161.4532 C.ar    1  UNL1        0.0660
     13 C         138.7313  139.6972  161.1427 C.ar    1  UNL1        0.0176
     14 C         137.7250  139.7809  162.2520 C.ar    1  UNL1        0.0021
     15 C         138.1847  139.9318  163.6717 C.ar    1  UNL1        0.0083
     16 C         139.6508  139.9991  163.9823 C.ar    1  UNL1        0.0434
     17 C         140.6570  139.9154  162.8730 C.ar    1  UNL1        0.0258
     18 C         140.1105  140.1500  165.4021 C.1     1  UNL1       -0.0595
     19 C         140.5702  140.3010  166.8219 C.1     1  UNL1       -0.0535
     20 C         141.0299  140.4519  168.2417 C.ar    1  UNL1        0.1130
     21 C         142.1970  139.6528  168.7411 C.ar    1  UNL1        0.0209
     22 C         142.6568  139.8038  170.1609 C.ar    1  UNL1        0.0778
     23 C         141.9495  140.7538  171.0813 C.ar    1  UNL1        0.3018
     24 N         140.7824  141.5529  170.5819 N.ar    1  UNL1       -0.1514
     25 O         140.0752  142.5030  171.5023 O.co2   1  UNL1       -0.6187
     26 C         140.3227  141.4020  169.1621 C.ar    1  UNL1        0.3099
     27 O         140.9043  136.9470  156.5845 O.2     1  UNL1       -0.2700
     28 C         142.1602  137.2744  157.3366 C.2     1  UNL1        0.2504
     29 N         143.3913  136.4405  157.1396 N.am    1  UNL1       -0.3024
     30 H         144.2156  136.6553  157.6332 H       1  UNL1        0.1497
     31 C         143.3666  135.2791  156.1907 C.3     1  UNL1        0.0720
     32 C         142.9532  134.6829  154.8778 C.3     1  UNL1        0.0213
     33 C         143.7372  133.8638  155.8598 C.3     1  UNL1        0.0213
@<TRIPOS>UNITY_ATOM_ATTR
24 1
charge 1
25 1
charge -1
@<TRIPOS>BOND
     1    27    28    2
     2    28    29   am
     3    29    31    1
     4    31    32    1
     5    32    33    1
     6    28     1    1
     7     1     2   ar
     8     2     3   ar
     9     3    12    1
    10    12    13   ar
    11    13    14   ar
    12    14    15   ar
    13    15    16   ar
    14    16    18    1
    15    18    19    3
    16    19    20    1
    17    20    21   ar
    18    21    22   ar
    19    22    23   ar
    20    23    24   ar
    21    24    25    1
    22    24    26   ar
    23    16    17   ar
    24     3     4   ar
    25     4     5   ar
    26     5     6   ar
    27     6     7   ar
    28     7     8   ar
    29     8     9   ar
    30     9    10   ar
    31    10    11    2
    32    33    31    1
    33    10     1   ar
    34    17    12   ar
    35     9     4   ar
    36    26    20   ar
    37    29    30    1
@<TRIPOS>MOLECULE
*****
 33 37 0 0 0
SMALL
GASTEIGER

@<TRIPOS>ATOM
      1 C         141.9632  138.5827  158.5767 C.ar    1  UNL1        0.1098
      2 C         142.8254  139.2497  159.6071 C.ar    1  UNL1        0.0891
      3 N         142.1951  140.0468  160.7104 N.ar    1  UNL1       -0.2900
      4 C         140.7025  140.1769  160.7834 C.ar    1  UNL1        0.1507
      5 N         140.0722  140.9740  161.8866 N.ar    1  UNL1       -0.2263
      6 C         138.5797  141.1041  161.9595 C.ar    1  UNL1        0.1005
      7 C         137.7174  140.4371  160.9292 C.ar    1  UNL1        0.0209
      8 C         138.3477  139.6400  159.8259 C.ar    1  UNL1        0.0078
      9 C         139.8403  139.5099  159.7530 C.ar    1  UNL1        0.0736
     10 C         140.4707  138.7128  158.6497 C.ar    1  UNL1        0.2043
     11 O         139.6085  138.0458  157.6193 O.2     1  UNL1       -0.2863
     12 C         143.0573  140.7138  161.7408 C.ar    1  UNL1        0.0660
     13 C         144.3738  141.3129  161.3432 C.ar    1  UNL1        0.0176
     14 C         145.2360  141.9799  162.3736 C.ar    1  UNL1        0.0021
     15 C         144.7818  142.0479  163.8015 C.ar    1  UNL1        0.0083
     16 C         143.4653  141.4488  164.1991 C.ar    1  UNL1        0.0434
     17 C         142.6031  140.7818  163.1688 C.ar    1  UNL1        0.0258
     18 C         143.0111  141.5167  165.6271 C.1     1  UNL1       -0.0595
     19 C         142.5569  141.5847  167.0550 C.1     1  UNL1       -0.0535
     20 C         142.1027  141.6527  168.4830 C.ar    1  UNL1        0.1130
     21 C         142.6374  140.6753  169.4874 C.ar    1  UNL1        0.0209
     22 C         142.1832  140.7433  170.9154 C.ar    1  UNL1        0.0778
     23 C         141.1943  141.7887  171.3390 C.ar    1  UNL1        0.3018
     24 N         140.6597  142.7661  170.3346 N.ar    1  UNL1       -0.1514
     25 O         139.6709  143.8114  170.7581 O.co2   1  UNL1       -0.6187
     26 C         141.1139  142.6981  168.9066 C.ar    1  UNL1        0.3099
     27 O         143.7706  138.3391  156.7263 O.2     1  UNL1       -0.2700
     28 C         142.5936  137.7856  157.4734 C.2     1  UNL1        0.2504
     29 N         142.0469  136.4349  157.1173 N.am    1  UNL1       -0.3024
     30 H         141.2744  136.0716  157.6076 H       1  UNL1        0.1497
     31 C         142.6772  135.6378  156.0140 C.3     1  UNL1        0.0720
     32 C         142.7429  135.2480  154.5670 C.3     1  UNL1        0.0213
     33 C         143.7033  134.6469  155.5500 C.3     1  UNL1        0.0213
@<TRIPOS>UNITY_ATOM_ATTR
24 1
charge 1
25 1
charge -1
@<TRIPOS>BOND
     1    27    28    2
     2    28    29   am
     3    29    31    1
     4    31    32    1
     5    32    33    1
     6    28     1    1
     7     1     2   ar
     8     2     3   ar
     9     3    12    1
    10    12    13   ar
    11    13    14   ar
    12    14    15   ar
    13    15    16   ar
    14    16    18    1
    15    18    19    3
    16    19    20    1
    17    20    21   ar
    18    21    22   ar
    19    22    23   ar
    20    23    24   ar
    21    24    25    1
    22    24    26   ar
    23    16    17   ar
    24     3     4   ar
    25     4     5   ar
    26     5     6   ar
    27     6     7   ar
    28     7     8   ar
    29     8     9   ar
    30     9    10   ar
    31    10    11    2
    32    33    31    1
    33    10     1   ar
    34    17    12   ar
    35     9     4   ar
    36    26    20   ar
    37    29    30    1
@<TRIPOS>MOLECULE
*****
 33 37 0 0 0
SMALL
GASTEIGER

@<TRIPOS>ATOM
      1 C         141.7893  141.3996  165.2255 C.ar    1  UNL1        0.1098
      2 C         141.7916  142.1658  163.9359 C.ar    1  UNL1        0.0891
      3 N         141.0714  141.6207  162.7384 N.ar    1  UNL1       -0.2900
      4 C         140.3489  140.3093  162.8304 C.ar    1  UNL1        0.1507
      5 N         139.6287  139.7642  161.6329 N.ar    1  UNL1       -0.2263
      6 C         138.9062  138.4530  161.7249 C.ar    1  UNL1        0.1005
      7 C         138.9039  137.6868  163.0144 C.ar    1  UNL1        0.0209
      8 C         139.6241  138.2319  164.2120 C.ar    1  UNL1        0.0078
      9 C         140.3466  139.5431  164.1200 C.ar    1  UNL1        0.0736
     10 C         141.0668  140.0883  165.3175 C.ar    1  UNL1        0.2043
     11 O         141.0645  139.3221  166.6071 O.2     1  UNL1       -0.2863
     12 C         141.0737  142.3868  161.4488 C.ar    1  UNL1        0.0660
     13 C         139.9814  143.3736  161.1608 C.ar    1  UNL1        0.0176
     14 C         139.9837  144.1397  159.8712 C.ar    1  UNL1        0.0021
     15 C         141.0783  143.9192  158.8697 C.ar    1  UNL1        0.0083
     16 C         142.1708  142.9324  159.1578 C.ar    1  UNL1        0.0434
     17 C         142.1685  142.1662  160.4473 C.ar    1  UNL1        0.0258
     18 C         143.2655  142.7119  158.1563 C.1     1  UNL1       -0.0595
     19 C         144.3601  142.4913  157.1548 C.1     1  UNL1       -0.0535
     20 C         145.4549  142.2708  156.1533 C.ar    1  UNL1        0.1130
     21 C         145.1238  142.1455  154.6957 C.ar    1  UNL1        0.0209
     22 C         146.2184  141.9250  153.6942 C.ar    1  UNL1        0.0778
     23 C         147.6443  141.8298  154.1503 C.ar    1  UNL1        0.3018
     24 N         147.9754  141.9551  155.6079 N.ar    1  UNL1       -0.1514
     25 O         149.4012  141.8600  156.0640 O.co2   1  UNL1       -0.6187
     26 C         146.8806  142.1756  156.6094 C.ar    1  UNL1        0.3099
     27 O         143.8008  142.6876  166.2477 O.2     1  UNL1       -0.2700
     28 C         142.5096  141.9447  166.4231 C.2     1  UNL1        0.2504
     29 N         141.9386  141.7470  167.7960 N.am    1  UNL1       -0.3024
     30 H         141.0911  141.2594  167.9110 H       1  UNL1        0.1497
     31 C         142.6587  142.2921  168.9935 C.3     1  UNL1        0.0720
     32 C         142.6387  143.0511  170.2871 C.3     1  UNL1        0.0213
     33 C         143.9261  142.4772  169.7741 C.3     1  UNL1        0.0213
@<TRIPOS>UNITY_ATOM_ATTR
24 1
charge 1
25 1
charge -1
@<TRIPOS>BOND
     1    27    28    2
     2    28    29   am
     3    29    31    1
     4    31    32    1
     5    32    33    1
     6    28     1    1
     7     1     2   ar
     8     2     3   ar
     9     3    12    1
    10    12    13   ar
    11    13    14   ar
    12    14    15   ar
    13    15    16   ar
    14    16    18    1
    15    18    19    3
    16    19    20    1
    17    20    21   ar
    18    21    22   ar
    19    22    23   ar
    20    23    24   ar
    21    24    25    1
    22    24    26   ar
    23    16    17   ar
    24     3     4   ar
    25     4     5   ar
    26     5     6   ar
    27     6     7   ar
    28     7     8   ar
    29     8     9   ar
    30     9    10   ar
    31    10    11    2
    32    33    31    1
    33    10     1   ar
    34    17    12   ar
    35     9     4   ar
    36    26    20   ar
    37    29    30    1
@<TRIPOS>MOLECULE
*****
 33 37 0 0 0
SMALL
GASTEIGER

@<TRIPOS>ATOM
      1 C         141.7634  141.8787  164.5608 C.ar    1  UNL1        0.1098
      2 C         142.4684  141.4914  163.2948 C.ar    1  UNL1        0.0891
      3 N         142.2712  142.3021  162.0483 N.ar    1  UNL1       -0.2900
      4 C         141.3690  143.5004  162.0679 C.ar    1  UNL1        0.1507
      5 N         141.1718  144.3111  160.8214 N.ar    1  UNL1       -0.2263
      6 C         140.2696  145.5093  160.8410 C.ar    1  UNL1        0.1005
      7 C         139.5646  145.8967  162.1071 C.ar    1  UNL1        0.0209
      8 C         139.7618  145.0859  163.3536 C.ar    1  UNL1        0.0078
      9 C         140.6640  143.8878  163.3339 C.ar    1  UNL1        0.0736
     10 C         140.8612  143.0769  164.5805 C.ar    1  UNL1        0.2043
     11 O         140.1563  143.4643  165.8465 O.2     1  UNL1       -0.2863
     12 C         142.9762  141.9147  160.7822 C.ar    1  UNL1        0.0660
     13 C         144.0035  142.8304  160.1856 C.ar    1  UNL1        0.0176
     14 C         144.7085  142.4430  158.9195 C.ar    1  UNL1        0.0021
     15 C         144.3862  141.1400  158.2501 C.ar    1  UNL1        0.0083
     16 C         143.3588  140.2242  158.8468 C.ar    1  UNL1        0.0434
     17 C         142.6538  140.6116  160.1129 C.ar    1  UNL1        0.0258
     18 C         143.0364  138.9212  158.1774 C.1     1  UNL1       -0.0595
     19 C         142.7140  137.6181  157.5080 C.1     1  UNL1       -0.0535
     20 C         142.3917  136.3150  156.8387 C.ar    1  UNL1        0.1130
     21 C         141.3855  136.2716  155.7270 C.ar    1  UNL1        0.0209
     22 C         141.0631  134.9686  155.0577 C.ar    1  UNL1        0.0778
     23 C         141.7469  133.7088  155.4999 C.ar    1  UNL1        0.3018
     24 N         142.7531  133.7522  156.6116 N.ar    1  UNL1       -0.1514
     25 O         143.4369  132.4926  157.0538 O.co2   1  UNL1       -0.6187
     26 C         143.0754  135.0553  157.2809 C.ar    1  UNL1        0.3099
     27 O         141.7165  139.5881  165.7859 O.2     1  UNL1       -0.2700
     28 C         141.9607  141.0679  165.8074 C.2     1  UNL1        0.2504
     29 N         142.4021  141.7369  167.0752 N.am    1  UNL1       -0.3024
     30 H         142.5624  142.7082  167.0893 H       1  UNL1        0.1497
     31 C         142.5993  140.9262  168.3217 C.3     1  UNL1        0.0720
     32 C         142.5113  139.6159  169.0466 C.3     1  UNL1        0.0213
     33 C         143.0290  140.8321  169.7557 C.3     1  UNL1        0.0213
@<TRIPOS>UNITY_ATOM_ATTR
24 1
charge 1
25 1
charge -1
@<TRIPOS>BOND
     1    27    28    2
     2    28    29   am
     3    29    31    1
     4    31    32    1
     5    32    33    1
     6    28     1    1
     7     1     2   ar
     8     2     3   ar
     9     3    12    1
    10    12    13   ar
    11    13    14   ar
    12    14    15   ar
    13    15    16   ar
    14    16    18    1
    15    18    19    3
    16    19    20    1
    17    20    21   ar
    18    21    22   ar
    19    22    23   ar
    20    23    24   ar
    21    24    25    1
    22    24    26   ar
    23    16    17   ar
    24     3     4   ar
    25     4     5   ar
    26     5     6   ar
    27     6     7   ar
    28     7     8   ar
    29     8     9   ar
    30     9    10   ar
    31    10    11    2
    32    33    31    1
    33    10     1   ar
    34    17    12   ar
    35     9     4   ar
    36    26    20   ar
    37    29    30    1
@<TRIPOS>MOLECULE
*****
 33 37 0 0 0
SMALL
GASTEIGER

@<TRIPOS>ATOM
      1 C         143.4995  142.2021  158.3491 C.ar    1  UNL1        0.1098
      2 C         143.1081  142.9604  159.5827 C.ar    1  UNL1        0.0891
      3 N         141.7665  142.7279  160.2119 N.ar    1  UNL1       -0.2900
      4 C         140.8162  141.7371  159.6075 C.ar    1  UNL1        0.1507
      5 N         139.4746  141.5046  160.2368 N.ar    1  UNL1       -0.2263
      6 C         138.5243  140.5139  159.6324 C.ar    1  UNL1        0.1005
      7 C         138.9157  139.7556  158.3987 C.ar    1  UNL1        0.0209
      8 C         140.2573  139.9880  157.7695 C.ar    1  UNL1        0.0078
      9 C         141.2075  140.9788  158.3739 C.ar    1  UNL1        0.0736
     10 C         142.5492  141.2113  157.7447 C.ar    1  UNL1        0.2043
     11 O         142.9406  140.4530  156.5111 O.2     1  UNL1       -0.2863
     12 C         141.3752  143.4862  161.4455 C.ar    1  UNL1        0.0660
     13 C         140.8251  144.8768  161.3282 C.ar    1  UNL1        0.0176
     14 C         140.4337  145.6351  162.5619 C.ar    1  UNL1        0.0021
     15 C         140.5924  145.0028  163.9128 C.ar    1  UNL1        0.0083
     16 C         141.1425  143.6122  164.0301 C.ar    1  UNL1        0.0434
     17 C         141.5339  142.8539  162.7965 C.ar    1  UNL1        0.0258
     18 C         141.3012  142.9800  165.3811 C.1     1  UNL1       -0.0595
     19 C         141.4600  142.3478  166.7320 C.1     1  UNL1       -0.0535
     20 C         141.6187  141.7155  168.0830 C.ar    1  UNL1        0.1130
     21 C         142.4227  140.4581  168.2328 C.ar    1  UNL1        0.0209
     22 C         142.5815  139.8259  169.5837 C.ar    1  UNL1        0.0778
     23 C         141.9362  140.4511  170.7850 C.ar    1  UNL1        0.3018
     24 N         141.1322  141.7085  170.6351 N.ar    1  UNL1       -0.1514
     25 O         140.4870  142.3337  171.8363 O.co2   1  UNL1       -0.6187
     26 C         140.9735  142.3407  169.2841 C.ar    1  UNL1        0.3099
     27 O         146.0237  142.7729  158.5784 O.2     1  UNL1       -0.2700
     28 C         144.8412  142.4346  157.7198 C.2     1  UNL1        0.2504
     29 N         145.0003  142.3288  156.2321 N.am    1  UNL1       -0.3024
     30 H         144.2241  142.1068  155.6686 H       1  UNL1        0.1497
     31 C         146.3419  142.5613  155.6028 C.3     1  UNL1        0.0720
     32 C         147.2277  143.3536  154.6877 C.3     1  UNL1        0.0213
     33 C         147.7798  142.1717  155.4281 C.3     1  UNL1        0.0213
@<TRIPOS>UNITY_ATOM_ATTR
24 1
charge 1
25 1
charge -1
@<TRIPOS>BOND
     1    27    28    2
     2    28    29   am
     3    29    31    1
     4    31    32    1
     5    32    33    1
     6    28     1    1
     7     1     2   ar
     8     2     3   ar
     9     3    12    1
    10    12    13   ar
    11    13    14   ar
    12    14    15   ar
    13    15    16   ar
    14    16    18    1
    15    18    19    3
    16    19    20    1
    17    20    21   ar
    18    21    22   ar
    19    22    23   ar
    20    23    24   ar
    21    24    25    1
    22    24    26   ar
    23    16    17   ar
    24     3     4   ar
    25     4     5   ar
    26     5     6   ar
    27     6     7   ar
    28     7     8   ar
    29     8     9   ar
    30     9    10   ar
    31    10    11    2
    32    33    31    1
    33    10     1   ar
    34    17    12   ar
    35     9     4   ar
    36    26    20   ar
    37    29    30    1
