@<TRIPOS>MOLECULE
*****
 25 26 0 0 0
SMALL
GASTEIGER

@<TRIPOS>ATOM
      1 C         139.0273  139.8680  165.2914 C.ar    1  UNL1        0.1327
      2 N         138.0548  138.8004  165.6969 N.ar    1  UNL1       -0.1993
      3 C         137.8300  138.5033  167.1499 C.ar    1  UNL1        0.2148
      4 N         136.8575  137.4357  167.5554 N.pl3   1  UNL1       -0.3274
      5 N         138.5778  139.2737  168.1974 N.ar    1  UNL1       -0.2138
      6 C         139.5504  140.3414  167.7918 C.ar    1  UNL1        0.0899
      7 C         140.2982  141.1118  168.8393 C.ar    1  UNL1        0.0562
      8 C         141.2707  142.1793  168.4338 C.ar    1  UNL1        0.1402
      9 C         141.4954  142.4765  166.9808 C.ar    1  UNL1        0.0371
     10 C         140.7476  141.7060  165.9333 C.ar    1  UNL1        0.0074
     11 C         139.7751  140.6385  166.3388 C.ar    1  UNL1        0.0494
     12 H         136.3667  136.9300  166.8679 H       1  UNL1        0.1452
     13 H         136.7099  137.2407  168.5091 H       1  UNL1        0.1452
     14 N         139.2520  140.1651  163.8384 N.pl3   1  UNL1       -0.3195
     15 H         140.1645  140.1531  163.4689 H       1  UNL1        0.1481
     16 C         138.0865  140.4805  162.9483 C.3     1  UNL1        0.0729
     17 C         137.3166  141.7530  163.1434 C.3     1  UNL1        0.0196
     18 C         137.8819  143.8262  164.6037 C.3     1  UNL1        0.0001
     19 C         138.0465  143.0500  163.3307 C.3     1  UNL1        0.0017
     20 C         137.6910  139.5234  161.8631 C.3     1  UNL1        0.0512
     21 C         138.4178  138.2202  161.7109 C.3     1  UNL1        0.1389
     22 O         138.6135  137.3272  162.9000 O.3     1  UNL1       -0.3819
     23 H         139.1964  137.7643  163.5403 H       1  UNL1        0.2104
     24 O         142.0185  142.9498  169.4813 O.3     1  UNL1       -0.4714
     25 C         143.3767  142.4912  169.9229 C.3     1  UNL1        0.2525
@<TRIPOS>BOND
     1    18    19    1
     2    19    17    1
     3    16    17    1
     4    16    20    1
     5    20    21    1
     6    21    22    1
     7    16    14    1
     8    14     1    1
     9     1     2   ar
    10     2     3   ar
    11     3     4    1
    12     3     5   ar
    13     5     6   ar
    14     6     7   ar
    15     7     8   ar
    16     8    24    1
    17    24    25    1
    18     8     9   ar
    19     9    10   ar
    20    10    11   ar
    21    11     1   ar
    22    11     6   ar
    23    22    23    1
    24    14    15    1
    25     4    12    1
    26     4    13    1
@<TRIPOS>MOLECULE
*****
 25 26 0 0 0
SMALL
GASTEIGER

@<TRIPOS>ATOM
      1 C         139.5403  143.1543  164.6194 C.ar    1  UNL1        0.1327
      2 N         138.6700  142.6772  163.4948 N.ar    1  UNL1       -0.1993
      3 C         138.0421  141.3164  163.5578 C.ar    1  UNL1        0.2148
      4 N         137.1717  140.8393  162.4331 N.pl3   1  UNL1       -0.3274
      5 N         138.2845  140.4328  164.7453 N.ar    1  UNL1       -0.2138
      6 C         139.1548  140.9099  165.8700 C.ar    1  UNL1        0.0899
      7 C         139.3973  140.0262  167.0576 C.ar    1  UNL1        0.0562
      8 C         140.2676  140.5034  168.1822 C.ar    1  UNL1        0.1402
      9 C         140.8955  141.8642  168.1193 C.ar    1  UNL1        0.0371
     10 C         140.6531  142.7478  166.9317 C.ar    1  UNL1        0.0074
     11 C         139.7828  142.2707  165.8071 C.ar    1  UNL1        0.0494
     12 H         137.0126  141.4192  161.6536 H       1  UNL1        0.1452
     13 H         136.7595  139.9461  162.4744 H       1  UNL1        0.1452
     14 N         140.1683  144.5151  164.5565 N.pl3   1  UNL1       -0.3195
     15 H         139.8664  145.2253  165.1678 H       1  UNL1        0.1481
     16 C         141.2561  144.7938  163.5621 C.3     1  UNL1        0.0729
     17 C         142.6943  144.6948  163.9763 C.3     1  UNL1        0.0196
     18 C         144.0867  143.1591  165.5426 C.3     1  UNL1        0.0001
     19 C         143.2959  143.3553  164.2832 C.3     1  UNL1        0.0017
     20 C         140.9057  145.1717  162.1533 C.3     1  UNL1        0.0512
     21 C         139.6649  145.9679  161.8769 C.3     1  UNL1        0.1389
     22 O         138.3153  145.3698  162.1427 O.3     1  UNL1       -0.3819
     23 H         138.1676  144.6244  161.5398 H       1  UNL1        0.2104
     24 O         140.5100  139.6197  169.3699 O.3     1  UNL1       -0.4714
     25 C         140.0530  140.0516  170.7317 C.3     1  UNL1        0.2525
@<TRIPOS>BOND
     1    18    19    1
     2    19    17    1
     3    16    17    1
     4    16    20    1
     5    20    21    1
     6    21    22    1
     7    16    14    1
     8    14     1    1
     9     1     2   ar
    10     2     3   ar
    11     3     4    1
    12     3     5   ar
    13     5     6   ar
    14     6     7   ar
    15     7     8   ar
    16     8    24    1
    17    24    25    1
    18     8     9   ar
    19     9    10   ar
    20    10    11   ar
    21    11     1   ar
    22    11     6   ar
    23    22    23    1
    24    14    15    1
    25     4    12    1
    26     4    13    1
@<TRIPOS>MOLECULE
*****
 25 26 0 0 0
SMALL
GASTEIGER

@<TRIPOS>ATOM
      1 C         139.2362  140.4476  164.7711 C.ar    1  UNL1        0.1327
      2 N         139.5907  141.4195  163.6851 N.ar    1  UNL1       -0.1993
      3 C         140.2648  142.7148  164.0285 C.ar    1  UNL1        0.2148
      4 N         140.6194  143.6867  162.9423 N.pl3   1  UNL1       -0.3274
      5 N         140.5843  143.0381  165.4579 N.ar    1  UNL1       -0.2138
      6 C         140.2297  142.0661  166.5440 C.ar    1  UNL1        0.0899
      7 C         140.5492  142.3894  167.9735 C.ar    1  UNL1        0.0562
      8 C         140.1946  141.4175  169.0595 C.ar    1  UNL1        0.1402
      9 C         139.5205  140.1222  168.7161 C.ar    1  UNL1        0.0371
     10 C         139.2011  139.7989  167.2867 C.ar    1  UNL1        0.0074
     11 C         139.5556  140.7709  166.2007 C.ar    1  UNL1        0.0494
     12 H         140.4097  143.4745  162.0041 H       1  UNL1        0.1452
     13 H         141.0618  144.5369  163.1677 H       1  UNL1        0.1452
     14 N         138.5621  139.1523  164.4277 N.pl3   1  UNL1       -0.3195
     15 H         137.8321  138.8121  164.9939 H       1  UNL1        0.1481
     16 C         139.0002  138.3755  163.2217 C.3     1  UNL1        0.0729
     17 C         140.3512  137.7240  163.1993 C.3     1  UNL1        0.0196
     18 C         142.0378  138.0372  165.1506 C.3     1  UNL1        0.0001
     19 C         140.9677  137.2317  164.4751 C.3     1  UNL1        0.0017
     20 C         138.0874  138.2500  162.0380 C.3     1  UNL1        0.0512
     21 C         137.6500  139.4773  161.2948 C.3     1  UNL1        0.1389
     22 O         137.0308  140.6235  162.0383 O.3     1  UNL1       -0.3819
     23 H         136.1784  140.3457  162.4089 H       1  UNL1        0.2104
     24 O         140.5141  141.7408  170.4891 O.3     1  UNL1       -0.4714
     25 C         141.7858  141.2380  171.1055 C.3     1  UNL1        0.2525
@<TRIPOS>BOND
     1    18    19    1
     2    19    17    1
     3    16    17    1
     4    16    20    1
     5    20    21    1
     6    21    22    1
     7    16    14    1
     8    14     1    1
     9     1     2   ar
    10     2     3   ar
    11     3     4    1
    12     3     5   ar
    13     5     6   ar
    14     6     7   ar
    15     7     8   ar
    16     8    24    1
    17    24    25    1
    18     8     9   ar
    19     9    10   ar
    20    10    11   ar
    21    11     1   ar
    22    11     6   ar
    23    22    23    1
    24    14    15    1
    25     4    12    1
    26     4    13    1
@<TRIPOS>MOLECULE
*****
 25 26 0 0 0
SMALL
GASTEIGER

@<TRIPOS>ATOM
      1 C         140.0991  141.3487  163.8628 C.ar    1  UNL1        0.1327
      2 N         139.4411  140.5667  162.7649 N.ar    1  UNL1       -0.1993
      3 C         138.5802  139.3845  163.0983 C.ar    1  UNL1        0.2148
      4 N         137.9222  138.6024  162.0003 N.pl3   1  UNL1       -0.3274
      5 N         138.3772  138.9843  164.5296 N.ar    1  UNL1       -0.2138
      6 C         139.0352  139.7664  165.6276 C.ar    1  UNL1        0.0899
      7 C         138.8322  139.3662  167.0589 C.ar    1  UNL1        0.0562
      8 C         139.4901  140.1483  168.1568 C.ar    1  UNL1        0.1402
      9 C         140.3511  141.3305  167.8234 C.ar    1  UNL1        0.0371
     10 C         140.5541  141.7306  166.3921 C.ar    1  UNL1        0.0074
     11 C         139.8961  140.9486  165.2942 C.ar    1  UNL1        0.0494
     12 H         138.0555  138.8651  161.0609 H       1  UNL1        0.1452
     13 H         137.3572  137.8265  162.2191 H       1  UNL1        0.1452
     14 N         140.9600  142.5310  163.5295 N.pl3   1  UNL1       -0.3195
     15 H         141.9400  142.4379  163.5153 H       1  UNL1        0.1481
     16 C         140.3279  143.8550  163.2178 C.3     1  UNL1        0.0729
     17 C         140.1062  144.8565  164.3123 C.3     1  UNL1        0.0196
     18 C         137.6602  144.0410  164.6318 C.3     1  UNL1        0.0001
     19 C         138.8489  144.8090  165.1289 C.3     1  UNL1        0.0017
     20 C         139.9174  144.1777  161.8115 C.3     1  UNL1        0.0512
     21 C         140.1558  145.5508  161.2569 C.3     1  UNL1        0.1389
     22 O         139.0767  146.5895  161.3364 O.3     1  UNL1       -0.3819
     23 H         138.3265  146.3194  160.7840 H       1  UNL1        0.2104
     24 O         139.2872  139.7481  169.5882 O.3     1  UNL1       -0.4714
     25 C         140.2508  140.2112  170.6402 C.3     1  UNL1        0.2525
@<TRIPOS>BOND
     1    18    19    1
     2    19    17    1
     3    16    17    1
     4    16    20    1
     5    20    21    1
     6    21    22    1
     7    16    14    1
     8    14     1    1
     9     1     2   ar
    10     2     3   ar
    11     3     4    1
    12     3     5   ar
    13     5     6   ar
    14     6     7   ar
    15     7     8   ar
    16     8    24    1
    17    24    25    1
    18     8     9   ar
    19     9    10   ar
    20    10    11   ar
    21    11     1   ar
    22    11     6   ar
    23    22    23    1
    24    14    15    1
    25     4    12    1
    26     4    13    1
@<TRIPOS>MOLECULE
*****
 25 26 0 0 0
SMALL
GASTEIGER

@<TRIPOS>ATOM
      1 C         141.0154  140.7356  166.4001 C.ar    1  UNL1        0.1327
      2 N         140.1480  139.5523  166.7121 N.ar    1  UNL1       -0.1993
      3 C         138.7577  139.4738  166.1545 C.ar    1  UNL1        0.2148
      4 N         137.8902  138.2904  166.4665 N.pl3   1  UNL1       -0.3274
      5 N         138.2349  140.5785  165.2849 N.ar    1  UNL1       -0.2138
      6 C         139.1023  141.7618  164.9729 C.ar    1  UNL1        0.0899
      7 C         138.5795  142.8665  164.1033 C.ar    1  UNL1        0.0562
      8 C         139.4469  144.0498  163.7913 C.ar    1  UNL1        0.1402
      9 C         140.8372  144.1283  164.3489 C.ar    1  UNL1        0.0371
     10 C         141.3601  143.0236  165.2185 C.ar    1  UNL1        0.0074
     11 C         140.4926  141.8404  165.5305 C.ar    1  UNL1        0.0494
     12 H         138.2334  137.5654  167.0373 H       1  UNL1        0.1452
     13 H         136.9777  138.2389  166.1006 H       1  UNL1        0.1452
     14 N         142.4057  140.8141  166.9577 N.pl3   1  UNL1       -0.3195
     15 H         143.1820  140.7356  166.3573 H       1  UNL1        0.1481
     16 C         142.6133  141.0122  168.4300 C.3     1  UNL1        0.0729
     17 C         142.8284  142.3918  168.9781 C.3     1  UNL1        0.0196
     18 C         140.4013  143.3129  169.0825 C.3     1  UNL1        0.0001
     19 C         141.7305  143.0772  169.7364 C.3     1  UNL1        0.0017
     20 C         142.6056  139.8307  169.3542 C.3     1  UNL1        0.0512
     21 C         141.3817  139.5196  170.1636 C.3     1  UNL1        0.1389
     22 O         140.0188  139.7416  169.5779 O.3     1  UNL1       -0.3819
     23 H         139.8802  140.6905  169.4322 H       1  UNL1        0.2104
     24 O         138.9241  145.1546  162.9217 O.3     1  UNL1       -0.4714
     25 C         139.8711  145.9615  162.0838 C.3     1  UNL1        0.2525
@<TRIPOS>BOND
     1    18    19    1
     2    19    17    1
     3    16    17    1
     4    16    20    1
     5    20    21    1
     6    21    22    1
     7    16    14    1
     8    14     1    1
     9     1     2   ar
    10     2     3   ar
    11     3     4    1
    12     3     5   ar
    13     5     6   ar
    14     6     7   ar
    15     7     8   ar
    16     8    24    1
    17    24    25    1
    18     8     9   ar
    19     9    10   ar
    20    10    11   ar
    21    11     1   ar
    22    11     6   ar
    23    22    23    1
    24    14    15    1
    25     4    12    1
    26     4    13    1
@<TRIPOS>MOLECULE
*****
 25 26 0 0 0
SMALL
GASTEIGER

@<TRIPOS>ATOM
      1 C         139.6326  140.9827  166.3073 C.ar    1  UNL1        0.1327
      2 N         139.4591  139.5499  165.8987 N.ar    1  UNL1       -0.1993
      3 C         139.0346  139.2151  164.4995 C.ar    1  UNL1        0.2148
      4 N         138.8610  137.7822  164.0910 N.pl3   1  UNL1       -0.3274
      5 N         138.7836  140.3131  163.5089 N.ar    1  UNL1       -0.2138
      6 C         138.9571  141.7460  163.9174 C.ar    1  UNL1        0.0899
      7 C         138.7061  142.8440  162.9268 C.ar    1  UNL1        0.0562
      8 C         138.8796  144.2767  163.3354 C.ar    1  UNL1        0.1402
      9 C         139.3041  144.6115  164.7346 C.ar    1  UNL1        0.0371
     10 C         139.5551  143.5135  165.7252 C.ar    1  UNL1        0.0074
     11 C         139.3816  142.0807  165.3166 C.ar    1  UNL1        0.0494
     12 H         139.0258  137.0615  164.7412 H       1  UNL1        0.1452
     13 H         138.5824  137.5625  163.1726 H       1  UNL1        0.1452
     14 N         140.0571  141.3174  167.7064 N.pl3   1  UNL1       -0.3195
     15 H         139.5277  141.9504  168.2433 H       1  UNL1        0.1481
     16 C         141.2883  140.6878  168.2876 C.3     1  UNL1        0.0729
     17 C         142.6192  140.8939  167.6272 C.3     1  UNL1        0.0196
     18 C         143.3580  142.5768  165.7908 C.3     1  UNL1        0.0001
     19 C         143.0527  142.2733  167.2277 C.3     1  UNL1        0.0017
     20 C         141.1885  139.8520  169.5292 C.3     1  UNL1        0.0512
     21 C         140.1750  140.1906  170.5818 C.3     1  UNL1        0.1389
     22 O         140.6219  140.5165  171.9761 O.3     1  UNL1       -0.3819
     23 H         141.0192  139.7295  172.3805 H       1  UNL1        0.2104
     24 O         138.6286  145.3748  162.3448 O.3     1  UNL1       -0.4714
     25 C         139.7775  146.1708  161.8003 C.3     1  UNL1        0.2525
@<TRIPOS>BOND
     1    18    19    1
     2    19    17    1
     3    16    17    1
     4    16    20    1
     5    20    21    1
     6    21    22    1
     7    16    14    1
     8    14     1    1
     9     1     2   ar
    10     2     3   ar
    11     3     4    1
    12     3     5   ar
    13     5     6   ar
    14     6     7   ar
    15     7     8   ar
    16     8    24    1
    17    24    25    1
    18     8     9   ar
    19     9    10   ar
    20    10    11   ar
    21    11     1   ar
    22    11     6   ar
    23    22    23    1
    24    14    15    1
    25     4    12    1
    26     4    13    1
@<TRIPOS>MOLECULE
*****
 25 26 0 0 0
SMALL
GASTEIGER

@<TRIPOS>ATOM
      1 C         139.3945  139.4522  165.6758 C.ar    1  UNL1        0.1327
      2 N         138.2887  138.4868  165.9844 N.ar    1  UNL1       -0.1993
      3 C         137.7294  138.4061  167.3739 C.ar    1  UNL1        0.2148
      4 N         136.6236  137.4407  167.6824 N.pl3   1  UNL1       -0.3274
      5 N         138.2759  139.2908  168.4548 N.ar    1  UNL1       -0.2138
      6 C         139.3818  140.2563  168.1463 C.ar    1  UNL1        0.0899
      7 C         139.9283  141.1410  169.2273 C.ar    1  UNL1        0.0562
      8 C         141.0340  142.1064  168.9188 C.ar    1  UNL1        0.1402
      9 C         141.5933  142.1871  167.5292 C.ar    1  UNL1        0.0371
     10 C         141.0468  141.3024  166.4483 C.ar    1  UNL1        0.0074
     11 C         139.9410  140.3370  166.7568 C.ar    1  UNL1        0.0494
     12 H         136.2649  136.8600  166.9729 H       1  UNL1        0.1452
     13 H         136.2565  137.3877  168.5943 H       1  UNL1        0.1452
     14 N         139.9537  139.5328  164.2863 N.pl3   1  UNL1       -0.3195
     15 H         139.7960  140.3352  163.7380 H       1  UNL1        0.1481
     16 C         140.7533  138.3911  163.7322 C.3     1  UNL1        0.0729
     17 C         141.7974  137.7259  164.5792 C.3     1  UNL1        0.0196
     18 C         143.4916  138.4186  166.4231 C.3     1  UNL1        0.0001
     19 C         143.0182  138.4885  165.0015 C.3     1  UNL1        0.0017
     20 C         140.5089  137.9146  162.3311 C.3     1  UNL1        0.0512
     21 C         141.5568  138.1158  161.2769 C.3     1  UNL1        0.1389
     22 O         142.7563  137.2164  161.2304 O.3     1  UNL1       -0.3819
     23 H         143.2958  137.3557  162.0243 H       1  UNL1        0.2104
     24 O         141.5806  142.9912  169.9997 O.3     1  UNL1       -0.4714
     25 C         143.0428  142.9533  170.3322 C.3     1  UNL1        0.2525
@<TRIPOS>BOND
     1    18    19    1
     2    19    17    1
     3    16    17    1
     4    16    20    1
     5    20    21    1
     6    21    22    1
     7    16    14    1
     8    14     1    1
     9     1     2   ar
    10     2     3   ar
    11     3     4    1
    12     3     5   ar
    13     5     6   ar
    14     6     7   ar
    15     7     8   ar
    16     8    24    1
    17    24    25    1
    18     8     9   ar
    19     9    10   ar
    20    10    11   ar
    21    11     1   ar
    22    11     6   ar
    23    22    23    1
    24    14    15    1
    25     4    12    1
    26     4    13    1
@<TRIPOS>MOLECULE
*****
 25 26 0 0 0
SMALL
GASTEIGER

@<TRIPOS>ATOM
      1 C         139.3105  139.9257  164.9004 C.ar    1  UNL1        0.1327
      2 N         139.6297  138.6972  164.1011 N.ar    1  UNL1       -0.1993
      3 C         140.9463  138.0029  164.2866 C.ar    1  UNL1        0.2148
      4 N         141.2655  136.7744  163.4873 N.pl3   1  UNL1       -0.3274
      5 N         141.9437  138.5371  165.2713 N.ar    1  UNL1       -0.2138
      6 C         141.6245  139.7657  166.0707 C.ar    1  UNL1        0.0899
      7 C         142.6219  140.2998  167.0554 C.ar    1  UNL1        0.0562
      8 C         142.3027  141.5283  167.8547 C.ar    1  UNL1        0.1402
      9 C         140.9861  142.2226  167.6692 C.ar    1  UNL1        0.0371
     10 C         139.9886  141.6884  166.6844 C.ar    1  UNL1        0.0074
     11 C         140.3079  140.4600  165.8852 C.ar    1  UNL1        0.0494
     12 H         140.6109  136.4238  162.8409 H       1  UNL1        0.1452
     13 H         142.1297  136.3187  163.6090 H       1  UNL1        0.1452
     14 N         137.9938  140.6200  164.7149 N.pl3   1  UNL1       -0.3195
     15 H         137.1980  140.3043  165.2010 H       1  UNL1        0.1481
     16 C         137.8896  141.7953  163.7888 C.3     1  UNL1        0.0729
     17 C         137.3636  143.1054  164.2958 C.3     1  UNL1        0.0196
     18 C         138.6160  144.9761  165.5929 C.3     1  UNL1        0.0001
     19 C         138.2463  144.3183  164.2965 C.3     1  UNL1        0.0017
     20 C         138.3114  141.6606  162.3556 C.3     1  UNL1        0.0512
     21 C         137.6650  140.6308  161.4772 C.3     1  UNL1        0.1389
     22 O         137.4268  139.2443  161.9974 O.3     1  UNL1       -0.3819
     23 H         138.2784  138.8087  162.1586 H       1  UNL1        0.2104
     24 O         143.3001  142.0626  168.8395 O.3     1  UNL1       -0.4714
     25 C         142.8295  142.6897  170.1183 C.3     1  UNL1        0.2525
@<TRIPOS>BOND
     1    18    19    1
     2    19    17    1
     3    16    17    1
     4    16    20    1
     5    20    21    1
     6    21    22    1
     7    16    14    1
     8    14     1    1
     9     1     2   ar
    10     2     3   ar
    11     3     4    1
    12     3     5   ar
    13     5     6   ar
    14     6     7   ar
    15     7     8   ar
    16     8    24    1
    17    24    25    1
    18     8     9   ar
    19     9    10   ar
    20    10    11   ar
    21    11     1   ar
    22    11     6   ar
    23    22    23    1
    24    14    15    1
    25     4    12    1
    26     4    13    1
@<TRIPOS>MOLECULE
*****
 25 26 0 0 0
SMALL
GASTEIGER

@<TRIPOS>ATOM
      1 C         141.5459  144.2790  164.0740 C.ar    1  UNL1        0.1327
      2 N         142.5930  144.4807  163.0191 N.ar    1  UNL1       -0.1993
      3 C         143.7894  143.5774  162.9676 C.ar    1  UNL1        0.2148
      4 N         144.8366  143.7791  161.9127 N.pl3   1  UNL1       -0.3274
      5 N         143.9386  142.4723  163.9709 N.ar    1  UNL1       -0.2138
      6 C         142.8915  142.2706  165.0258 C.ar    1  UNL1        0.0899
      7 C         143.0407  141.1656  166.0290 C.ar    1  UNL1        0.0562
      8 C         141.9935  140.9639  167.0839 C.ar    1  UNL1        0.1402
      9 C         140.7971  141.8672  167.1354 C.ar    1  UNL1        0.0371
     10 C         140.6479  142.9722  166.1322 C.ar    1  UNL1        0.0074
     11 C         141.6951  143.1739  165.0773 C.ar    1  UNL1        0.0494
     12 H         144.7387  144.5044  161.2542 H       1  UNL1        0.1452
     13 H         145.6219  143.1862  161.8788 H       1  UNL1        0.1452
     14 N         140.3495  145.1823  164.1255 N.pl3   1  UNL1       -0.3195
     15 H         140.1784  145.7273  164.9274 H       1  UNL1        0.1481
     16 C         139.4139  145.2554  162.9554 C.3     1  UNL1        0.0729
     17 C         138.1566  144.4373  162.9482 C.3     1  UNL1        0.0196
     18 C         137.6905  142.1926  164.1706 C.3     1  UNL1        0.0001
     19 C         137.7398  143.6918  164.1813 C.3     1  UNL1        0.0017
     20 C         139.7355  146.1466  161.7924 C.3     1  UNL1        0.0512
     21 C         140.2831  145.5585  160.5259 C.3     1  UNL1        0.1389
     22 O         140.9069  144.1945  160.5407 O.3     1  UNL1       -0.3819
     23 H         141.7172  144.2153  161.0736 H       1  UNL1        0.2104
     24 O         142.1427  139.8588  168.0872 O.3     1  UNL1       -0.4714
     25 C         142.5780  140.1715  169.4882 C.3     1  UNL1        0.2525
@<TRIPOS>BOND
     1    18    19    1
     2    19    17    1
     3    16    17    1
     4    16    20    1
     5    20    21    1
     6    21    22    1
     7    16    14    1
     8    14     1    1
     9     1     2   ar
    10     2     3   ar
    11     3     4    1
    12     3     5   ar
    13     5     6   ar
    14     6     7   ar
    15     7     8   ar
    16     8    24    1
    17    24    25    1
    18     8     9   ar
    19     9    10   ar
    20    10    11   ar
    21    11     1   ar
    22    11     6   ar
    23    22    23    1
    24    14    15    1
    25     4    12    1
    26     4    13    1
