@<TRIPOS>MOLECULE
*****
 30 34 0 0 0
SMALL
GASTEIGER

@<TRIPOS>ATOM
      1 C         140.7602  145.2584  163.2504 C.3     1  UNL1        0.0730
      2 C         143.4201  142.9189  164.8367 C.3     1  UNL1        0.0371
      3 C         144.8711  142.5789  164.6663 C.3     1  UNL1        0.0073
      4 C         144.2309  143.6020  163.7756 C.3     1  UNL1        0.0215
      5 C         143.3332  144.5615  163.0522 C.3     1  UNL1        0.0724
      6 N         141.9675  144.4715  163.6662 N.3     1  UNL1       -0.2724
      7 C         142.0213  143.4562  164.7691 C.3     1  UNL1        0.0762
      8 C         142.4217  139.1423  169.3910 C.3     1  UNL1        0.0311
      9 C         142.6713  140.0864  168.2524 C.ar    1  UNL1       -0.0196
     10 C         142.8530  141.5513  168.5189 C.ar    1  UNL1       -0.0044
     11 C         143.1026  142.4955  167.3803 C.ar    1  UNL1       -0.0023
     12 C         143.1705  141.9747  165.9753 C.ar    1  UNL1        0.0060
     13 C         142.9889  140.5098  165.7088 C.ar    1  UNL1        0.1358
     14 F         143.0568  139.9890  164.3037 F       1  UNL1       -0.2045
     15 C         142.7393  139.5657  166.8474 C.ar    1  UNL1        0.0251
     16 C         140.5778  145.6488  161.8136 C.3     1  UNL1        0.0294
     17 C         140.9289  144.6806  160.7230 C.3     1  UNL1        0.0666
     18 S         139.9042  143.7027  160.2297 S.3     1  UNL1       -0.0756
     19 C         139.1650  142.8349  161.2048 C.ar    1  UNL1        0.1933
     20 N         137.7135  142.9519  161.5648 N.ar    1  UNL1       -0.1220
     21 N         137.3989  141.8872  162.5735 N.ar    1  UNL1       -0.1250
     22 C         138.6560  141.1123  162.8369 C.ar    1  UNL1        0.2029
     23 N         139.7474  141.6980  161.9910 N.ar    1  UNL1       -0.2860
     24 C         141.1714  141.2292  161.9402 C.3     1  UNL1        0.1341
     25 C         138.7968  139.9548  163.7806 C.ar    1  UNL1        0.1964
     26 O         138.6037  138.5078  163.4359 O.2     1  UNL1       -0.4283
     27 C         138.8430  137.6998  164.6769 C.ar    1  UNL1        0.2849
     28 N         139.1841  138.6475  165.7884 N.ar    1  UNL1       -0.2085
     29 C         139.1556  140.0412  165.2344 C.ar    1  UNL1        0.1001
     30 C         139.4364  141.3002  166.0001 C.3     1  UNL1        0.0556
@<TRIPOS>BOND
     1     8     9    1
     2     9    10   ar
     3    10    11   ar
     4    11    12   ar
     5    12     2    1
     6     2     3    1
     7     3     4    1
     8     4     5    1
     9     5     6    1
    10     6     1    1
    11     1    16    1
    12    16    17    1
    13    17    18    1
    14    18    19    1
    15    19    20   ar
    16    20    21   ar
    17    21    22   ar
    18    22    25    1
    19    25    26   ar
    20    26    27   ar
    21    27    28   ar
    22    28    29   ar
    23    29    30    1
    24    22    23   ar
    25    23    24    1
    26     6     7    1
    27    12    13   ar
    28    13    14    1
    29    13    15   ar
    30    15     9   ar
    31     4     2    1
    32    23    19   ar
    33     7     2    1
    34    29    25   ar
@<TRIPOS>MOLECULE
*****
 30 34 0 0 0
SMALL
GASTEIGER

@<TRIPOS>ATOM
      1 C         138.3208  138.5170  165.8996 C.3     1  UNL1        0.0730
      2 C         140.6062  141.4792  166.9331 C.3     1  UNL1        0.0371
      3 C         141.0311  142.1965  168.1801 C.3     1  UNL1        0.0073
      4 C         140.0773  141.0421  168.2670 C.3     1  UNL1        0.0215
      5 C         139.1569  139.8793  168.0422 C.3     1  UNL1        0.0724
      6 N         139.1168  139.5977  166.5694 N.3     1  UNL1       -0.2724
      7 C         140.0126  140.5865  165.8839 C.3     1  UNL1        0.0762
      8 C         143.8338  144.8347  163.1485 C.3     1  UNL1        0.0311
      9 C         143.0269  143.9958  164.0947 C.ar    1  UNL1       -0.0196
     10 C         141.5760  144.3031  164.3188 C.ar    1  UNL1       -0.0044
     11 C         140.7691  143.4643  165.2649 C.ar    1  UNL1       -0.0023
     12 C         141.4131  142.3181  165.9870 C.ar    1  UNL1        0.0060
     13 C         142.8641  142.0108  165.7629 C.ar    1  UNL1        0.1358
     14 F         143.5082  140.8645  166.4849 F       1  UNL1       -0.2045
     15 C         143.6710  142.8496  164.8167 C.ar    1  UNL1        0.0251
     16 C         139.0206  137.4449  165.1181 C.3     1  UNL1        0.0294
     17 C         140.1120  137.8095  164.1558 C.3     1  UNL1        0.0666
     18 S         139.7775  138.1327  162.7298 S.3     1  UNL1       -0.0756
     19 C         139.1693  139.4597  162.3842 C.ar    1  UNL1        0.1933
     20 N         137.7151  139.7229  162.1275 N.ar    1  UNL1       -0.1220
     21 N         137.5555  141.1822  161.8194 N.ar    1  UNL1       -0.1250
     22 C         138.9111  141.8208  161.8856 C.ar    1  UNL1        0.2029
     23 N         139.9085  140.7562  162.2347 N.ar    1  UNL1       -0.2860
     24 C         141.3858  140.9536  162.4045 C.3     1  UNL1        0.1341
     25 C         139.2159  143.2697  161.6450 C.ar    1  UNL1        0.1964
     26 O         140.1666  143.8121  160.6193 O.2     1  UNL1       -0.4283
     27 C         140.1618  145.3082  160.7281 C.ar    1  UNL1        0.2849
     28 N         139.2082  145.6903  161.8211 N.ar    1  UNL1       -0.2085
     29 C         138.6236  144.4304  162.3877 C.ar    1  UNL1        0.1001
     30 C         137.6224  144.3462  163.5016 C.3     1  UNL1        0.0556
@<TRIPOS>BOND
     1     8     9    1
     2     9    10   ar
     3    10    11   ar
     4    11    12   ar
     5    12     2    1
     6     2     3    1
     7     3     4    1
     8     4     5    1
     9     5     6    1
    10     6     1    1
    11     1    16    1
    12    16    17    1
    13    17    18    1
    14    18    19    1
    15    19    20   ar
    16    20    21   ar
    17    21    22   ar
    18    22    25    1
    19    25    26   ar
    20    26    27   ar
    21    27    28   ar
    22    28    29   ar
    23    29    30    1
    24    22    23   ar
    25    23    24    1
    26     6     7    1
    27    12    13   ar
    28    13    14    1
    29    13    15   ar
    30    15     9   ar
    31     4     2    1
    32    23    19   ar
    33     7     2    1
    34    29    25   ar
@<TRIPOS>MOLECULE
*****
 30 34 0 0 0
SMALL
GASTEIGER

@<TRIPOS>ATOM
      1 C         145.5182  141.8213  163.2110 C.3     1  UNL1        0.0730
      2 C         143.0319  140.5621  165.9125 C.3     1  UNL1        0.0371
      3 C         142.3921  139.2770  166.3477 C.3     1  UNL1        0.0073
      4 C         143.3425  139.2863  165.1873 C.3     1  UNL1        0.0215
      5 C         144.3117  139.6027  164.0871 C.3     1  UNL1        0.0724
      6 N         144.6001  141.0741  164.1322 N.3     1  UNL1       -0.2724
      7 C         143.8091  141.6670  165.2604 C.3     1  UNL1        0.0762
      8 C         140.4029  144.0083  170.0612 C.3     1  UNL1        0.0311
      9 C         141.0602  143.1467  169.0241 C.ar    1  UNL1       -0.0196
     10 C         142.4306  142.5892  169.2709 C.ar    1  UNL1       -0.0044
     11 C         143.0878  141.7276  168.2337 C.ar    1  UNL1       -0.0023
     12 C         142.3746  141.4236  166.9497 C.ar    1  UNL1        0.0060
     13 C         141.0042  141.9812  166.7028 C.ar    1  UNL1        0.1358
     14 F         140.2909  141.6772  165.4187 F       1  UNL1       -0.2045
     15 C         140.3470  142.8427  167.7400 C.ar    1  UNL1        0.0251
     16 C         144.9541  142.6025  162.0614 C.3     1  UNL1        0.0294
     17 C         144.5590  141.8976  160.7977 C.3     1  UNL1        0.0666
     18 S         143.3162  142.3098  160.0661 S.3     1  UNL1       -0.0756
     19 C         142.3253  143.2226  160.7258 C.ar    1  UNL1        0.1933
     20 N         142.0650  144.6536  160.3594 N.ar    1  UNL1       -0.1220
     21 N         140.9997  145.1800  161.2748 N.ar    1  UNL1       -0.1250
     22 C         140.6016  144.0743  162.2070 C.ar    1  UNL1        0.2029
     23 N         141.4209  142.8645  161.8676 N.ar    1  UNL1       -0.2860
     24 C         141.3485  141.5308  162.5503 C.3     1  UNL1        0.1341
     25 C         139.5661  144.1628  163.2885 C.ar    1  UNL1        0.1964
     26 O         139.6588  144.9970  164.5317 O.2     1  UNL1       -0.4283
     27 C         138.4060  144.7824  165.3284 C.ar    1  UNL1        0.2849
     28 N         137.5392  143.8155  164.5775 N.ar    1  UNL1       -0.2085
     29 C         138.2561  143.4326  163.3168 C.ar    1  UNL1        0.1001
     30 C         137.7516  142.4857  162.2685 C.3     1  UNL1        0.0556
@<TRIPOS>BOND
     1     8     9    1
     2     9    10   ar
     3    10    11   ar
     4    11    12   ar
     5    12     2    1
     6     2     3    1
     7     3     4    1
     8     4     5    1
     9     5     6    1
    10     6     1    1
    11     1    16    1
    12    16    17    1
    13    17    18    1
    14    18    19    1
    15    19    20   ar
    16    20    21   ar
    17    21    22   ar
    18    22    25    1
    19    25    26   ar
    20    26    27   ar
    21    27    28   ar
    22    28    29   ar
    23    29    30    1
    24    22    23   ar
    25    23    24    1
    26     6     7    1
    27    12    13   ar
    28    13    14    1
    29    13    15   ar
    30    15     9   ar
    31     4     2    1
    32    23    19   ar
    33     7     2    1
    34    29    25   ar
@<TRIPOS>MOLECULE
*****
 30 34 0 0 0
SMALL
GASTEIGER

@<TRIPOS>ATOM
      1 C         137.2772  141.4988  162.4440 C.3     1  UNL1        0.0730
      2 C         139.1829  139.0708  164.7975 C.3     1  UNL1        0.0371
      3 C         139.6711  137.6525  164.8020 C.3     1  UNL1        0.0073
      4 C         138.9415  138.1908  163.6071 C.3     1  UNL1        0.0215
      5 C         138.1982  138.9931  162.5805 C.3     1  UNL1        0.0724
      6 N         137.9803  140.3692  163.1366 N.3     1  UNL1       -0.2724
      7 C         138.5889  140.4171  164.5067 C.3     1  UNL1        0.0762
      8 C         141.2090  140.4489  170.2743 C.3     1  UNL1        0.0311
      9 C         140.7025  140.1044  168.9051 C.ar    1  UNL1       -0.0196
     10 C         141.6406  140.1113  167.7347 C.ar    1  UNL1       -0.0044
     11 C         141.1341  139.7668  166.3655 C.ar    1  UNL1       -0.0023
     12 C         139.6895  139.4154  166.1667 C.ar    1  UNL1        0.0060
     13 C         138.7514  139.4085  167.3371 C.ar    1  UNL1        0.1358
     14 F         137.3067  139.0571  167.1383 F       1  UNL1       -0.2045
     15 C         139.2579  139.7530  168.7063 C.ar    1  UNL1        0.0251
     16 C         138.0582  142.6853  161.9622 C.3     1  UNL1        0.0294
     17 C         137.9473  143.9978  162.6798 C.3     1  UNL1        0.0666
     18 S         139.1371  144.9068  162.7688 S.3     1  UNL1       -0.0756
     19 C         140.4997  144.3969  162.4031 C.ar    1  UNL1        0.1933
     20 N         141.2566  144.7246  161.1503 N.ar    1  UNL1       -0.1220
     21 N         142.5691  144.0001  161.1989 N.ar    1  UNL1       -0.1250
     22 C         142.6233  143.2247  162.4817 C.ar    1  UNL1        0.2029
     23 N         141.3443  143.4699  163.2260 N.ar    1  UNL1       -0.2860
     24 C         140.9748  142.8900  164.5591 C.3     1  UNL1        0.1341
     25 C         143.7574  142.3564  162.9399 C.ar    1  UNL1        0.1964
     26 O         145.1340  142.8253  163.3074 O.2     1  UNL1       -0.4283
     27 C         145.9415  141.6255  163.7057 C.ar    1  UNL1        0.2849
     28 N         145.0638  140.4152  163.5844 N.ar    1  UNL1       -0.2085
     29 C         143.7140  140.8669  163.1111 C.ar    1  UNL1        0.1001
     30 C         142.5289  139.9840  162.8540 C.3     1  UNL1        0.0556
@<TRIPOS>BOND
     1     8     9    1
     2     9    10   ar
     3    10    11   ar
     4    11    12   ar
     5    12     2    1
     6     2     3    1
     7     3     4    1
     8     4     5    1
     9     5     6    1
    10     6     1    1
    11     1    16    1
    12    16    17    1
    13    17    18    1
    14    18    19    1
    15    19    20   ar
    16    20    21   ar
    17    21    22   ar
    18    22    25    1
    19    25    26   ar
    20    26    27   ar
    21    27    28   ar
    22    28    29   ar
    23    29    30    1
    24    22    23   ar
    25    23    24    1
    26     6     7    1
    27    12    13   ar
    28    13    14    1
    29    13    15   ar
    30    15     9   ar
    31     4     2    1
    32    23    19   ar
    33     7     2    1
    34    29    25   ar
@<TRIPOS>MOLECULE
*****
 30 34 0 0 0
SMALL
GASTEIGER

@<TRIPOS>ATOM
      1 C         144.8963  142.8312  164.2236 C.3     1  UNL1        0.0730
      2 C         143.1125  139.8222  165.9057 C.3     1  UNL1        0.0371
      3 C         143.1473  138.3231  165.8676 C.3     1  UNL1        0.0073
      4 C         144.0718  139.1173  164.9932 C.3     1  UNL1        0.0215
      5 C         144.8568  140.1586  164.2520 C.3     1  UNL1        0.0724
      6 N         144.3826  141.5072  164.7065 N.3     1  UNL1       -0.2724
      7 C         143.3046  141.2993  165.7285 C.3     1  UNL1        0.0762
      8 C         138.7711  140.2442  170.0258 C.3     1  UNL1        0.0311
      9 C         139.8565  140.1387  168.9957 C.ar    1  UNL1       -0.0196
     10 C         141.2958  140.1913  169.4147 C.ar    1  UNL1       -0.0044
     11 C         142.3811  140.0858  168.3847 C.ar    1  UNL1       -0.0023
     12 C         142.0271  139.9277  166.9357 C.ar    1  UNL1        0.0060
     13 C         140.5879  139.8751  166.5167 C.ar    1  UNL1        0.1358
     14 F         140.2338  139.7170  165.0677 F       1  UNL1       -0.2045
     15 C         139.5025  139.9806  167.5467 C.ar    1  UNL1        0.0251
     16 C         144.2549  144.1021  164.6964 C.3     1  UNL1        0.0294
     17 C         143.4408  144.9298  163.7465 C.3     1  UNL1        0.0666
     18 S         142.0123  144.5660  163.4695 S.3     1  UNL1       -0.0756
     19 C         141.6915  143.3202  162.6979 C.ar    1  UNL1        0.1933
     20 N         142.4953  142.7530  161.5656 N.ar    1  UNL1       -0.1220
     21 N         141.8113  141.5052  161.0911 N.ar    1  UNL1       -0.1250
     22 C         140.5848  141.3012  161.9302 C.ar    1  UNL1        0.2029
     23 N         140.5108  142.4230  162.9233 N.ar    1  UNL1       -0.2860
     24 C         139.4434  142.6139  163.9597 C.3     1  UNL1        0.1341
     25 C         139.6044  140.1736  161.7992 C.ar    1  UNL1        0.1964
     26 O         138.1374  140.3090  161.5175 O.2     1  UNL1       -0.4283
     27 C         137.5451  138.9316  161.4711 C.ar    1  UNL1        0.2849
     28 N         138.6463  137.9449  161.7241 N.ar    1  UNL1       -0.2085
     29 C         139.9190  138.7125  161.9269 C.ar    1  UNL1        0.1001
     30 C         141.2692  138.1225  162.2080 C.3     1  UNL1        0.0556
@<TRIPOS>BOND
     1     8     9    1
     2     9    10   ar
     3    10    11   ar
     4    11    12   ar
     5    12     2    1
     6     2     3    1
     7     3     4    1
     8     4     5    1
     9     5     6    1
    10     6     1    1
    11     1    16    1
    12    16    17    1
    13    17    18    1
    14    18    19    1
    15    19    20   ar
    16    20    21   ar
    17    21    22   ar
    18    22    25    1
    19    25    26   ar
    20    26    27   ar
    21    27    28   ar
    22    28    29   ar
    23    29    30    1
    24    22    23   ar
    25    23    24    1
    26     6     7    1
    27    12    13   ar
    28    13    14    1
    29    13    15   ar
    30    15     9   ar
    31     4     2    1
    32    23    19   ar
    33     7     2    1
    34    29    25   ar
@<TRIPOS>MOLECULE
*****
 30 34 0 0 0
SMALL
GASTEIGER

@<TRIPOS>ATOM
      1 C         139.1496  144.4749  164.4249 C.3     1  UNL1        0.0730
      2 C         139.2424  140.8711  165.8634 C.3     1  UNL1        0.0371
      3 C         138.5571  139.5533  165.6542 C.3     1  UNL1        0.0073
      4 C         138.1732  140.7391  164.8197 C.3     1  UNL1        0.0215
      5 C         138.0083  142.0730  164.1538 C.3     1  UNL1        0.0724
      6 N         138.9756  143.0295  164.7860 N.3     1  UNL1       -0.2724
      7 C         139.7383  142.2866  165.8426 C.3     1  UNL1        0.0762
      8 C         142.8664  139.0017  170.2648 C.3     1  UNL1        0.0311
      9 C         141.9604  139.4691  169.1645 C.ar    1  UNL1       -0.0196
     10 C         140.5872  139.9779  169.4889 C.ar    1  UNL1       -0.0044
     11 C         139.6812  140.4453  168.3885 C.ar    1  UNL1       -0.0023
     12 C         140.1484  140.4038  166.9638 C.ar    1  UNL1        0.0060
     13 C         141.5216  139.8949  166.6394 C.ar    1  UNL1        0.1358
     14 F         141.9889  139.8534  165.2146 F       1  UNL1       -0.2045
     15 C         142.4277  139.4276  167.7397 C.ar    1  UNL1        0.0251
     16 C         138.6156  144.9920  163.1221 C.3     1  UNL1        0.0294
     17 C         139.5444  145.6271  162.1301 C.3     1  UNL1        0.0666
     18 S         140.4953  144.7763  161.3416 S.3     1  UNL1       -0.0756
     19 C         140.2212  143.3122  161.1640 C.ar    1  UNL1        0.1933
     20 N         139.2223  142.7104  160.2207 N.ar    1  UNL1       -0.1220
     21 N         139.2817  141.2192  160.3722 N.ar    1  UNL1       -0.1250
     22 C         140.3173  140.8995  161.4091 C.ar    1  UNL1        0.2029
     23 N         140.8980  142.1931  161.8984 N.ar    1  UNL1       -0.2860
     24 C         141.9677  142.3415  162.9395 C.3     1  UNL1        0.1341
     25 C         140.7044  139.5273  161.8749 C.ar    1  UNL1        0.1964
     26 O         142.1008  139.0465  162.1372 O.2     1  UNL1       -0.4283
     27 C         142.0225  137.6169  162.5846 C.ar    1  UNL1        0.2849
     28 N         140.5777  137.2142  162.5988 N.ar    1  UNL1       -0.2085
     29 C         139.7630  138.3948  162.1602 C.ar    1  UNL1        0.1001
     30 C         138.2692  138.4358  162.0298 C.3     1  UNL1        0.0556
@<TRIPOS>BOND
     1     8     9    1
     2     9    10   ar
     3    10    11   ar
     4    11    12   ar
     5    12     2    1
     6     2     3    1
     7     3     4    1
     8     4     5    1
     9     5     6    1
    10     6     1    1
    11     1    16    1
    12    16    17    1
    13    17    18    1
    14    18    19    1
    15    19    20   ar
    16    20    21   ar
    17    21    22   ar
    18    22    25    1
    19    25    26   ar
    20    26    27   ar
    21    27    28   ar
    22    28    29   ar
    23    29    30    1
    24    22    23   ar
    25    23    24    1
    26     6     7    1
    27    12    13   ar
    28    13    14    1
    29    13    15   ar
    30    15     9   ar
    31     4     2    1
    32    23    19   ar
    33     7     2    1
    34    29    25   ar
@<TRIPOS>MOLECULE
*****
 30 34 0 0 0
SMALL
GASTEIGER

@<TRIPOS>ATOM
      1 C         143.9605  143.7588  163.6984 C.3     1  UNL1        0.0730
      2 C         140.2469  143.2941  164.7272 C.3     1  UNL1        0.0371
      3 C         138.9874  144.1047  164.8090 C.3     1  UNL1        0.0073
      4 C         140.2577  144.7394  164.3257 C.3     1  UNL1        0.0215
      5 C         141.6501  145.0894  163.8915 C.3     1  UNL1        0.0724
      6 N         142.4999  143.8604  164.0245 N.3     1  UNL1       -0.2724
      7 C         141.6326  142.7509  164.5411 C.3     1  UNL1        0.0762
      8 C         137.8309  138.1783  166.7251 C.3     1  UNL1        0.0311
      9 C         138.4349  139.4573  166.2256 C.ar    1  UNL1       -0.0196
     10 C         138.1342  139.9364  164.8364 C.ar    1  UNL1       -0.0044
     11 C         138.7382  141.2153  164.3369 C.ar    1  UNL1       -0.0023
     12 C         139.6429  142.0152  165.2267 C.ar    1  UNL1        0.0060
     13 C         139.9436  141.5361  166.6159 C.ar    1  UNL1        0.1358
     14 F         140.8483  142.3359  167.5058 F       1  UNL1       -0.2045
     15 C         139.3396  140.2571  167.1154 C.ar    1  UNL1        0.0251
     16 C         144.8535  142.8793  164.5223 C.3     1  UNL1        0.0294
     17 C         145.6159  141.7639  163.8707 C.3     1  UNL1        0.0666
     18 S         145.1578  140.3453  164.0366 S.3     1  UNL1       -0.0756
     19 C         143.7610  139.9581  163.6505 C.ar    1  UNL1        0.1933
     20 N         142.7542  139.2892  164.5387 N.ar    1  UNL1       -0.1220
     21 N         141.4967  139.0895  163.7456 N.ar    1  UNL1       -0.1250
     22 C         141.7264  139.6351  162.3674 C.ar    1  UNL1        0.2029
     23 N         143.1258  140.1719  162.3086 N.ar    1  UNL1       -0.2860
     24 C         143.7758  140.8104  161.1170 C.3     1  UNL1        0.1341
     25 C         140.7313  139.6425  161.2450 C.ar    1  UNL1        0.1964
     26 O         140.2336  138.4395  160.5000 O.2     1  UNL1       -0.4283
     27 C         139.2540  138.9077  159.4650 C.ar    1  UNL1        0.2849
     28 N         139.1463  140.4001  159.5704 N.ar    1  UNL1       -0.2085
     29 C         140.0593  140.8542  160.6704 C.ar    1  UNL1        0.1001
     30 C         140.2644  142.2714  161.1175 C.3     1  UNL1        0.0556
@<TRIPOS>BOND
     1     8     9    1
     2     9    10   ar
     3    10    11   ar
     4    11    12   ar
     5    12     2    1
     6     2     3    1
     7     3     4    1
     8     4     5    1
     9     5     6    1
    10     6     1    1
    11     1    16    1
    12    16    17    1
    13    17    18    1
    14    18    19    1
    15    19    20   ar
    16    20    21   ar
    17    21    22   ar
    18    22    25    1
    19    25    26   ar
    20    26    27   ar
    21    27    28   ar
    22    28    29   ar
    23    29    30    1
    24    22    23   ar
    25    23    24    1
    26     6     7    1
    27    12    13   ar
    28    13    14    1
    29    13    15   ar
    30    15     9   ar
    31     4     2    1
    32    23    19   ar
    33     7     2    1
    34    29    25   ar
@<TRIPOS>MOLECULE
*****
 30 34 0 0 0
SMALL
GASTEIGER

@<TRIPOS>ATOM
      1 C         138.6151  138.3417  164.5174 C.3     1  UNL1        0.0730
      2 C         139.8261  141.7870  165.8320 C.3     1  UNL1        0.0371
      3 C         139.5341  143.2431  165.6204 C.3     1  UNL1        0.0073
      4 C         138.7746  142.2057  164.8477 C.3     1  UNL1        0.0215
      5 C         138.1929  140.9661  164.2355 C.3     1  UNL1        0.0724
      6 N         138.8850  139.7812  164.8414 N.3     1  UNL1       -0.2724
      7 C         139.8944  140.2886  165.8281 C.3     1  UNL1        0.0762
      8 C         144.1080  142.5990  169.9559 C.3     1  UNL1        0.0311
      9 C         143.0375  142.3960  168.9250 C.ar    1  UNL1       -0.0196
     10 C         141.6057  142.2532  169.3485 C.ar    1  UNL1       -0.0044
     11 C         140.5352  142.0502  168.3175 C.ar    1  UNL1       -0.0023
     12 C         140.8966  141.9900  166.8630 C.ar    1  UNL1        0.0060
     13 C         142.3284  142.1328  166.4394 C.ar    1  UNL1        0.1358
     14 F         142.6898  142.0726  164.9848 F       1  UNL1       -0.2045
     15 C         143.3989  142.3358  167.4704 C.ar    1  UNL1        0.0251
     16 C         139.1170  137.7556  163.2311 C.3     1  UNL1        0.0294
     17 C         138.4919  138.1593  161.9287 C.3     1  UNL1        0.0666
     18 S         139.3255  138.8152  160.8682 S.3     1  UNL1       -0.0756
     19 C         139.6518  140.2760  160.9672 C.ar    1  UNL1        0.1933
     20 N         138.8639  141.3984  160.3596 N.ar    1  UNL1       -0.1220
     21 N         139.5484  142.6869  160.7080 N.ar    1  UNL1       -0.1250
     22 C         140.7593  142.3607  161.5310 C.ar    1  UNL1        0.2029
     23 N         140.8232  140.8706  161.6912 N.ar    1  UNL1       -0.2860
     24 C         141.8740  140.1090  162.4433 C.3     1  UNL1        0.1341
     25 C         141.7350  143.3506  162.0949 C.ar    1  UNL1        0.1964
     26 O         141.4551  144.3405  163.1865 O.2     1  UNL1       -0.4283
     27 C         142.7090  145.1263  163.4324 C.ar    1  UNL1        0.2849
     28 N         143.7638  144.6219  162.4927 N.ar    1  UNL1       -0.2085
     29 C         143.1618  143.5245  161.6661 C.ar    1  UNL1        0.1001
     30 C         143.8635  142.7390  160.5981 C.3     1  UNL1        0.0556
@<TRIPOS>BOND
     1     8     9    1
     2     9    10   ar
     3    10    11   ar
     4    11    12   ar
     5    12     2    1
     6     2     3    1
     7     3     4    1
     8     4     5    1
     9     5     6    1
    10     6     1    1
    11     1    16    1
    12    16    17    1
    13    17    18    1
    14    18    19    1
    15    19    20   ar
    16    20    21   ar
    17    21    22   ar
    18    22    25    1
    19    25    26   ar
    20    26    27   ar
    21    27    28   ar
    22    28    29   ar
    23    29    30    1
    24    22    23   ar
    25    23    24    1
    26     6     7    1
    27    12    13   ar
    28    13    14    1
    29    13    15   ar
    30    15     9   ar
    31     4     2    1
    32    23    19   ar
    33     7     2    1
    34    29    25   ar
@<TRIPOS>MOLECULE
*****
 30 34 0 0 0
SMALL
GASTEIGER

@<TRIPOS>ATOM
      1 C         144.4311  142.5345  163.3952 C.3     1  UNL1        0.0730
      2 C         143.2105  139.7280  165.7824 C.3     1  UNL1        0.0371
      3 C         143.4857  138.2791  166.0564 C.3     1  UNL1        0.0073
      4 C         144.2417  138.9949  164.9767 C.3     1  UNL1        0.0215
      5 C         144.8245  139.9570  163.9843 C.3     1  UNL1        0.0724
      6 N         144.1534  141.2847  164.1768 N.3     1  UNL1       -0.2724
      7 C         143.1560  141.1431  165.2881 C.3     1  UNL1        0.0762
      8 C         138.9906  140.3732  169.9986 C.3     1  UNL1        0.0311
      9 C         140.0456  140.2119  168.9445 C.ar    1  UNL1       -0.0196
     10 C         141.4925  140.1501  169.3349 C.ar    1  UNL1       -0.0044
     11 C         142.5475  139.9888  168.2809 C.ar    1  UNL1       -0.0023
     12 C         142.1555  139.8893  166.8365 C.ar    1  UNL1        0.0060
     13 C         140.7086  139.9511  166.4461 C.ar    1  UNL1        0.1358
     14 F         140.3165  139.8516  165.0016 F       1  UNL1       -0.2045
     15 C         139.6536  140.1124  167.5001 C.ar    1  UNL1        0.0251
     16 C         145.0963  142.4478  162.0536 C.3     1  UNL1        0.0294
     17 C         144.3141  142.7427  160.8082 C.3     1  UNL1        0.0666
     18 S         144.1286  141.6771  159.7690 S.3     1  UNL1       -0.0756
     19 C         143.3046  140.4625  160.0789 C.ar    1  UNL1        0.1933
     20 N         143.6965  139.0396  159.8113 N.ar    1  UNL1       -0.1220
     21 N         142.5783  138.1553  160.2778 N.ar    1  UNL1       -0.1250
     22 C         141.4954  139.0317  160.8338 C.ar    1  UNL1        0.2029
     23 N         141.9443  140.4577  160.7109 N.ar    1  UNL1       -0.2860
     24 C         141.1690  141.6666  161.1439 C.3     1  UNL1        0.1341
     25 C         140.1923  138.5643  161.4113 C.ar    1  UNL1        0.1964
     26 O         138.8270  138.8806  160.8765 O.2     1  UNL1       -0.4283
     27 C         137.8166  138.2103  161.7597 C.ar    1  UNL1        0.2849
     28 N         138.5575  137.4799  162.8402 N.ar    1  UNL1       -0.2085
     29 C         140.0257  137.6986  162.6249 C.ar    1  UNL1        0.1001
     30 C         141.1330  137.1483  163.4741 C.3     1  UNL1        0.0556
@<TRIPOS>BOND
     1     8     9    1
     2     9    10   ar
     3    10    11   ar
     4    11    12   ar
     5    12     2    1
     6     2     3    1
     7     3     4    1
     8     4     5    1
     9     5     6    1
    10     6     1    1
    11     1    16    1
    12    16    17    1
    13    17    18    1
    14    18    19    1
    15    19    20   ar
    16    20    21   ar
    17    21    22   ar
    18    22    25    1
    19    25    26   ar
    20    26    27   ar
    21    27    28   ar
    22    28    29   ar
    23    29    30    1
    24    22    23   ar
    25    23    24    1
    26     6     7    1
    27    12    13   ar
    28    13    14    1
    29    13    15   ar
    30    15     9   ar
    31     4     2    1
    32    23    19   ar
    33     7     2    1
    34    29    25   ar
