@<TRIPOS>MOLECULE
*****
 29 33 0 0 0
SMALL
GASTEIGER

@<TRIPOS>ATOM
      1 O         139.8581  138.3824  159.3499 O.2     1  UNL1       -0.2526
      2 C         141.0274  138.3630  160.2892 C.2     1  UNL1        0.3039
      3 N         142.3984  138.0398  159.7735 N.am    1  UNL1       -0.2901
      4 N         140.8258  138.6669  161.7442 N.am    1  UNL1       -0.2640
      5 C         139.4548  138.9901  162.2599 C.3     1  UNL1        0.0985
      6 C         139.2533  139.2940  163.7149 C.3     1  UNL1        0.0616
      7 C         140.4226  139.2745  164.6542 C.3     1  UNL1        0.1367
      8 C         139.0516  139.5978  165.1699 C.3     1  UNL1        0.0449
      9 C         138.8500  139.9016  166.6249 C.3     1  UNL1        0.0331
     10 C         140.0194  139.8822  167.5642 C.ar    1  UNL1        0.0141
     11 C         139.8177  140.1861  169.0192 C.ar    1  UNL1        0.0284
     12 C         140.9870  140.1666  169.9585 C.ar    1  UNL1        0.1400
     13 F         140.7855  140.4705  171.4135 F       1  UNL1       -0.2042
     14 C         142.3580  139.8434  169.4427 C.ar    1  UNL1        0.0327
     15 C         142.5596  139.5395  167.9878 C.ar    1  UNL1        0.0389
     16 C         141.3903  139.5590  167.0485 C.ar    1  UNL1        0.1343
     17 O         141.5919  139.2551  165.5934 O.3     1  UNL1       -0.4828
     18 C         141.7935  138.9513  164.1385 C.3     1  UNL1        0.0616
     19 C         141.9951  138.6474  162.6835 C.3     1  UNL1        0.0985
     20 H         143.1658  138.0270  160.3900 H       1  UNL1        0.1509
     21 C         142.6000  137.7359  158.3184 C.3     1  UNL1        0.0774
     22 C         142.9007  138.1998  156.9240 C.3     1  UNL1        0.0259
     23 C         142.6486  136.7458  157.1927 C.3     1  UNL1        0.0420
     24 C         142.5311  135.3347  156.6979 C.ar    1  UNL1       -0.0208
     25 C         141.5930  135.0098  155.5734 C.ar    1  UNL1       -0.0042
     26 C         141.4755  133.5987  155.0786 C.ar    1  UNL1       -0.0003
     27 C         142.2960  132.5123  155.7083 C.ar    1  UNL1       -0.0000
     28 C         143.2341  132.8371  156.8328 C.ar    1  UNL1       -0.0003
     29 C         143.3516  134.2483  157.3276 C.ar    1  UNL1       -0.0042
@<TRIPOS>BOND
     1     1     2    2
     2     2     3   am
     3    21     3    1
     4    21    22    1
     5    22    23    1
     6    23    24    1
     7    24    25   ar
     8    25    26   ar
     9    26    27   ar
    10    27    28   ar
    11    28    29   ar
    12     2     4   am
    13     4     5    1
    14     5     6    1
    15     6     7    1
    16     7     8    1
    17     8     9    1
    18     9    10    1
    19    10    11   ar
    20    11    12   ar
    21    12    13    1
    22    12    14   ar
    23    14    15   ar
    24    15    16   ar
    25    16    17    1
    26     7    18    1
    27    18    19    1
    28    23    21    1
    29    29    24   ar
    30    19     4    1
    31    17     7    1
    32    16    10   ar
    33     3    20    1
@<TRIPOS>MOLECULE
*****
 29 33 0 0 0
SMALL
GASTEIGER

@<TRIPOS>ATOM
      1 O         143.2992  137.9795  159.5253 O.2     1  UNL1       -0.2526
      2 C         142.0188  138.3483  160.2143 C.2     1  UNL1        0.3039
      3 N         140.7516  138.4786  159.4224 N.am    1  UNL1       -0.2901
      4 N         142.0057  138.5867  161.6952 N.am    1  UNL1       -0.2640
      5 C         143.2730  138.4564  162.4871 C.3     1  UNL1        0.0985
      6 C         143.2598  138.6949  163.9679 C.3     1  UNL1        0.0616
      7 C         141.9795  139.0636  164.6569 C.3     1  UNL1        0.1367
      8 C         143.2467  138.9333  165.4488 C.3     1  UNL1        0.0449
      9 C         143.2336  139.1718  166.9297 C.3     1  UNL1        0.0331
     10 C         141.9533  139.5405  167.6187 C.ar    1  UNL1        0.0141
     11 C         141.9402  139.7790  169.0996 C.ar    1  UNL1        0.0284
     12 C         140.6598  140.1477  169.7886 C.ar    1  UNL1        0.1400
     13 F         140.6467  140.3861  171.2694 F       1  UNL1       -0.2042
     14 C         139.3925  140.2780  168.9966 C.ar    1  UNL1        0.0327
     15 C         139.4057  140.0396  167.5158 C.ar    1  UNL1        0.0389
     16 C         140.6860  139.6708  166.8268 C.ar    1  UNL1        0.1343
     17 O         140.6991  139.4324  165.3459 O.3     1  UNL1       -0.4828
     18 C         140.7122  139.1939  163.8650 C.3     1  UNL1        0.0616
     19 C         140.7254  138.9555  162.3842 C.3     1  UNL1        0.0985
     20 H         139.9112  138.7206  159.8747 H       1  UNL1        0.1509
     21 C         140.7646  138.2401  157.9415 C.3     1  UNL1        0.0774
     22 C         140.4155  138.6825  156.5514 C.3     1  UNL1        0.0259
     23 C         141.1364  137.3848  156.7667 C.3     1  UNL1        0.0420
     24 C         141.7673  136.1419  156.2127 C.ar    1  UNL1       -0.0208
     25 C         143.0771  135.6575  156.7603 C.ar    1  UNL1       -0.0042
     26 C         143.7079  134.4145  156.2063 C.ar    1  UNL1       -0.0003
     27 C         143.0290  133.6558  155.1047 C.ar    1  UNL1       -0.0000
     28 C         141.7193  134.1402  154.5571 C.ar    1  UNL1       -0.0003
     29 C         141.0884  135.3832  155.1111 C.ar    1  UNL1       -0.0042
@<TRIPOS>BOND
     1     1     2    2
     2     2     3   am
     3    21     3    1
     4    21    22    1
     5    22    23    1
     6    23    24    1
     7    24    25   ar
     8    25    26   ar
     9    26    27   ar
    10    27    28   ar
    11    28    29   ar
    12     2     4   am
    13     4     5    1
    14     5     6    1
    15     6     7    1
    16     7     8    1
    17     8     9    1
    18     9    10    1
    19    10    11   ar
    20    11    12   ar
    21    12    13    1
    22    12    14   ar
    23    14    15   ar
    24    15    16   ar
    25    16    17    1
    26     7    18    1
    27    18    19    1
    28    23    21    1
    29    29    24   ar
    30    19     4    1
    31    17     7    1
    32    16    10   ar
    33     3    20    1
@<TRIPOS>MOLECULE
*****
 29 33 0 0 0
SMALL
GASTEIGER

@<TRIPOS>ATOM
      1 O         144.3850  139.6516  159.0543 O.2     1  UNL1       -0.2526
      2 C         143.2862  139.0760  159.8977 C.2     1  UNL1        0.3039
      3 N         142.3945  138.0066  159.3399 N.am    1  UNL1       -0.2901
      4 N         143.0791  139.5698  161.2989 N.am    1  UNL1       -0.2640
      5 C         143.9709  140.6392  161.8567 C.3     1  UNL1        0.0985
      6 C         143.7638  141.1329  163.2579 C.3     1  UNL1        0.0616
      7 C         142.6649  140.5573  164.1012 C.3     1  UNL1        0.1367
      8 C         143.5567  141.6267  164.6591 C.3     1  UNL1        0.0449
      9 C         143.3496  142.1205  166.0602 C.3     1  UNL1        0.0331
     10 C         142.2507  141.5449  166.9036 C.ar    1  UNL1        0.0141
     11 C         142.0437  142.0387  168.3048 C.ar    1  UNL1        0.0284
     12 C         140.9448  141.4630  169.1481 C.ar    1  UNL1        0.1400
     13 F         140.7377  141.9568  170.5493 F       1  UNL1       -0.2042
     14 C         140.0531  140.3936  168.5903 C.ar    1  UNL1        0.0327
     15 C         140.2602  139.8998  167.1891 C.ar    1  UNL1        0.0389
     16 C         141.3590  140.4755  166.3458 C.ar    1  UNL1        0.1343
     17 O         141.5661  139.9817  164.9445 O.3     1  UNL1       -0.4828
     18 C         141.7732  139.4879  163.5434 C.3     1  UNL1        0.0616
     19 C         141.9803  138.9942  162.1422 C.3     1  UNL1        0.0985
     20 H         141.6733  137.6288  159.8934 H       1  UNL1        0.1509
     21 C         142.6016  137.5128  157.9386 C.3     1  UNL1        0.0774
     22 C         142.8599  137.7922  156.4877 C.3     1  UNL1        0.0259
     23 C         142.7019  136.3782  156.9626 C.3     1  UNL1        0.0420
     24 C         142.6686  134.9067  156.6734 C.ar    1  UNL1       -0.0208
     25 C         141.8240  134.3821  155.5503 C.ar    1  UNL1       -0.0042
     26 C         141.7907  132.9107  155.2610 C.ar    1  UNL1       -0.0003
     27 C         142.6020  131.9638  156.0949 C.ar    1  UNL1       -0.0000
     28 C         143.4466  132.4884  157.2180 C.ar    1  UNL1       -0.0003
     29 C         143.4798  133.9600  157.5072 C.ar    1  UNL1       -0.0042
@<TRIPOS>BOND
     1     1     2    2
     2     2     3   am
     3    21     3    1
     4    21    22    1
     5    22    23    1
     6    23    24    1
     7    24    25   ar
     8    25    26   ar
     9    26    27   ar
    10    27    28   ar
    11    28    29   ar
    12     2     4   am
    13     4     5    1
    14     5     6    1
    15     6     7    1
    16     7     8    1
    17     8     9    1
    18     9    10    1
    19    10    11   ar
    20    11    12   ar
    21    12    13    1
    22    12    14   ar
    23    14    15   ar
    24    15    16   ar
    25    16    17    1
    26     7    18    1
    27    18    19    1
    28    23    21    1
    29    29    24   ar
    30    19     4    1
    31    17     7    1
    32    16    10   ar
    33     3    20    1
@<TRIPOS>MOLECULE
*****
 29 33 0 0 0
SMALL
GASTEIGER

@<TRIPOS>ATOM
      1 O         143.1834  137.6846  157.9963 O.2     1  UNL1       -0.2526
      2 C         141.7873  138.1900  158.2094 C.2     1  UNL1        0.3039
      3 N         140.6751  137.7185  157.3203 N.am    1  UNL1       -0.2901
      4 N         141.5034  139.1668  159.3119 N.am    1  UNL1       -0.2640
      5 C         142.6156  139.6383  160.2010 C.3     1  UNL1        0.0985
      6 C         142.3317  140.6151  161.3034 C.3     1  UNL1        0.0616
      7 C         140.9356  141.1204  161.5165 C.3     1  UNL1        0.1367
      8 C         142.0478  141.5919  162.4058 C.3     1  UNL1        0.0449
      9 C         141.7639  142.5687  163.5081 C.3     1  UNL1        0.0331
     10 C         140.3677  143.0741  163.7213 C.ar    1  UNL1        0.0141
     11 C         140.0839  144.0509  164.8237 C.ar    1  UNL1        0.0284
     12 C         138.6877  144.5563  165.0369 C.ar    1  UNL1        0.1400
     13 F         138.4038  145.5331  166.1392 F       1  UNL1       -0.2042
     14 C         137.5755  144.0848  164.1476 C.ar    1  UNL1        0.0327
     15 C         137.8594  143.1080  163.0453 C.ar    1  UNL1        0.0389
     16 C         139.2555  142.6026  162.8321 C.ar    1  UNL1        0.1343
     17 O         139.5394  141.6258  161.7297 O.3     1  UNL1       -0.4828
     18 C         139.8233  140.6490  160.6274 C.3     1  UNL1        0.0616
     19 C         140.1073  139.6722  159.5250 C.3     1  UNL1        0.0985
     20 H         139.7588  138.0502  157.4602 H       1  UNL1        0.1509
     21 C         140.9590  136.7417  156.2178 C.3     1  UNL1        0.0774
     22 C         140.8698  136.3528  154.7719 C.3     1  UNL1        0.0259
     23 C         141.5398  135.4387  155.7544 C.3     1  UNL1        0.0420
     24 C         142.2620  134.1586  156.0541 C.ar    1  UNL1       -0.0208
     25 C         141.7846  132.8697  155.4533 C.ar    1  UNL1       -0.0042
     26 C         142.5068  131.5897  155.7530 C.ar    1  UNL1       -0.0003
     27 C         143.7064  131.5984  156.6536 C.ar    1  UNL1       -0.0000
     28 C         144.1838  132.8873  157.2544 C.ar    1  UNL1       -0.0003
     29 C         143.4615  134.1674  156.9546 C.ar    1  UNL1       -0.0042
@<TRIPOS>BOND
     1     1     2    2
     2     2     3   am
     3    21     3    1
     4    21    22    1
     5    22    23    1
     6    23    24    1
     7    24    25   ar
     8    25    26   ar
     9    26    27   ar
    10    27    28   ar
    11    28    29   ar
    12     2     4   am
    13     4     5    1
    14     5     6    1
    15     6     7    1
    16     7     8    1
    17     8     9    1
    18     9    10    1
    19    10    11   ar
    20    11    12   ar
    21    12    13    1
    22    12    14   ar
    23    14    15   ar
    24    15    16   ar
    25    16    17    1
    26     7    18    1
    27    18    19    1
    28    23    21    1
    29    29    24   ar
    30    19     4    1
    31    17     7    1
    32    16    10   ar
    33     3    20    1
@<TRIPOS>MOLECULE
*****
 29 33 0 0 0
SMALL
GASTEIGER

@<TRIPOS>ATOM
      1 O         144.0055  139.5674  158.1809 O.2     1  UNL1       -0.2526
      2 C         143.9710  140.7365  159.1201 C.2     1  UNL1        0.3039
      3 N         144.1461  142.1291  158.5911 N.am    1  UNL1       -0.2901
      4 N         143.7615  140.5128  160.5886 N.am    1  UNL1       -0.2640
      5 C         143.5864  139.1202  161.1176 C.3     1  UNL1        0.0985
      6 C         143.3768  138.8966  162.5860 C.3     1  UNL1        0.0616
      7 C         143.3424  140.0656  163.5252 C.3     1  UNL1        0.1367
      8 C         143.1673  138.6730  164.0544 C.3     1  UNL1        0.0449
      9 C         142.9577  138.4494  165.5227 C.3     1  UNL1        0.0331
     10 C         142.9233  139.6184  166.4620 C.ar    1  UNL1        0.0141
     11 C         142.7137  139.3947  167.9304 C.ar    1  UNL1        0.0284
     12 C         142.6793  140.5638  168.8696 C.ar    1  UNL1        0.1400
     13 F         142.4697  140.3402  170.3380 F       1  UNL1       -0.2042
     14 C         142.8544  141.9564  168.3405 C.ar    1  UNL1        0.0327
     15 C         143.0639  142.1800  166.8722 C.ar    1  UNL1        0.0389
     16 C         143.0984  141.0110  165.9329 C.ar    1  UNL1        0.1343
     17 O         143.3079  141.2346  164.4645 O.3     1  UNL1       -0.4828
     18 C         143.5174  141.4582  162.9962 C.3     1  UNL1        0.0616
     19 C         143.7270  141.6818  161.5278 C.3     1  UNL1        0.0985
     20 H         144.1235  142.8963  159.2076 H       1  UNL1        0.1509
     21 C         144.3556  142.3527  157.1227 C.3     1  UNL1        0.0774
     22 C         143.8152  142.7358  155.7769 C.3     1  UNL1        0.0259
     23 C         145.2590  142.3570  155.9252 C.3     1  UNL1        0.0420
     24 C         146.6141  142.1408  155.3195 C.ar    1  UNL1       -0.0208
     25 C         146.7451  141.8805  153.8481 C.ar    1  UNL1       -0.0042
     26 C         148.1001  141.6643  153.2424 C.ar    1  UNL1       -0.0003
     27 C         149.3244  141.7084  154.1081 C.ar    1  UNL1       -0.0000
     28 C         149.1934  141.9687  155.5795 C.ar    1  UNL1       -0.0003
     29 C         147.8382  142.1849  156.1852 C.ar    1  UNL1       -0.0042
@<TRIPOS>BOND
     1     1     2    2
     2     2     3   am
     3    21     3    1
     4    21    22    1
     5    22    23    1
     6    23    24    1
     7    24    25   ar
     8    25    26   ar
     9    26    27   ar
    10    27    28   ar
    11    28    29   ar
    12     2     4   am
    13     4     5    1
    14     5     6    1
    15     6     7    1
    16     7     8    1
    17     8     9    1
    18     9    10    1
    19    10    11   ar
    20    11    12   ar
    21    12    13    1
    22    12    14   ar
    23    14    15   ar
    24    15    16   ar
    25    16    17    1
    26     7    18    1
    27    18    19    1
    28    23    21    1
    29    29    24   ar
    30    19     4    1
    31    17     7    1
    32    16    10   ar
    33     3    20    1
@<TRIPOS>MOLECULE
*****
 29 33 0 0 0
SMALL
GASTEIGER

@<TRIPOS>ATOM
      1 O         142.0064  145.9789  158.2248 O.2     1  UNL1       -0.2526
      2 C         140.9164  144.9798  158.4773 C.2     1  UNL1        0.3039
      3 N         139.9433  144.6400  157.3876 N.am    1  UNL1       -0.2901
      4 N         140.7996  144.3205  159.8197 N.am    1  UNL1       -0.2640
      5 C         141.7728  144.6603  160.9093 C.3     1  UNL1        0.0985
      6 C         141.6560  144.0010  162.2516 C.3     1  UNL1        0.0616
      7 C         140.5660  143.0019  162.5041 C.3     1  UNL1        0.1367
      8 C         141.5392  143.3417  163.5939 C.3     1  UNL1        0.0449
      9 C         141.4224  142.6824  164.9361 C.3     1  UNL1        0.0331
     10 C         140.3324  141.6833  165.1887 C.ar    1  UNL1        0.0141
     11 C         140.2156  141.0240  166.5310 C.ar    1  UNL1        0.0284
     12 C         139.1257  140.0249  166.7836 C.ar    1  UNL1        0.1400
     13 F         139.0088  139.3656  168.1258 F       1  UNL1       -0.2042
     14 C         138.1525  139.6852  165.6938 C.ar    1  UNL1        0.0327
     15 C         138.2693  140.3444  164.3516 C.ar    1  UNL1        0.0389
     16 C         139.3593  141.3435  164.0990 C.ar    1  UNL1        0.1343
     17 O         139.4760  142.0028  162.7567 O.3     1  UNL1       -0.4828
     18 C         139.5929  142.6621  161.4144 C.3     1  UNL1        0.0616
     19 C         139.7097  143.3214  160.0722 C.3     1  UNL1        0.0985
     20 H         139.2279  143.9843  157.5534 H       1  UNL1        0.1509
     21 C         140.0601  145.2993  156.0453 C.3     1  UNL1        0.0774
     22 C         140.3931  145.2223  154.5848 C.3     1  UNL1        0.0259
     23 C         139.9293  146.5182  155.1809 C.3     1  UNL1        0.0420
     24 C         139.5860  147.9701  155.0261 C.ar    1  UNL1       -0.0208
     25 C         138.7596  148.6609  156.0701 C.ar    1  UNL1       -0.0042
     26 C         138.4164  150.1128  155.9152 C.ar    1  UNL1       -0.0003
     27 C         138.8994  150.8741  154.7163 C.ar    1  UNL1       -0.0000
     28 C         139.7258  150.1833  153.6723 C.ar    1  UNL1       -0.0003
     29 C         140.0691  148.7312  153.8272 C.ar    1  UNL1       -0.0042
@<TRIPOS>BOND
     1     1     2    2
     2     2     3   am
     3    21     3    1
     4    21    22    1
     5    22    23    1
     6    23    24    1
     7    24    25   ar
     8    25    26   ar
     9    26    27   ar
    10    27    28   ar
    11    28    29   ar
    12     2     4   am
    13     4     5    1
    14     5     6    1
    15     6     7    1
    16     7     8    1
    17     8     9    1
    18     9    10    1
    19    10    11   ar
    20    11    12   ar
    21    12    13    1
    22    12    14   ar
    23    14    15   ar
    24    15    16   ar
    25    16    17    1
    26     7    18    1
    27    18    19    1
    28    23    21    1
    29    29    24   ar
    30    19     4    1
    31    17     7    1
    32    16    10   ar
    33     3    20    1
@<TRIPOS>MOLECULE
*****
 29 33 0 0 0
SMALL
GASTEIGER

@<TRIPOS>ATOM
      1 O         140.0999  137.7964  163.8971 O.2     1  UNL1       -0.2526
      2 C         139.0863  138.7651  163.3639 C.2     1  UNL1        0.3039
      3 N         138.1679  139.4845  164.3068 N.am    1  UNL1       -0.2901
      4 N         138.9912  139.0145  161.8878 N.am    1  UNL1       -0.2640
      5 C         139.9096  138.2952  160.9450 C.3     1  UNL1        0.0985
      6 C         139.8145  138.5446  159.4689 C.3     1  UNL1        0.0616
      7 C         138.8010  139.5133  158.9358 C.3     1  UNL1        0.1367
      8 C         139.7194  138.7939  157.9928 C.3     1  UNL1        0.0449
      9 C         139.6242  139.0433  156.5168 C.3     1  UNL1        0.0331
     10 C         138.6107  140.0121  155.9836 C.ar    1  UNL1        0.0141
     11 C         138.5156  140.2615  154.5075 C.ar    1  UNL1        0.0284
     12 C         137.5021  141.2302  153.9744 C.ar    1  UNL1        0.1400
     13 F         137.4069  141.4796  152.4983 F       1  UNL1       -0.2042
     14 C         136.5837  141.9496  154.9173 C.ar    1  UNL1        0.0327
     15 C         136.6788  141.7002  156.3933 C.ar    1  UNL1        0.0389
     16 C         137.6923  140.7315  156.9265 C.ar    1  UNL1        0.1343
     17 O         137.7874  140.4821  158.4026 O.3     1  UNL1       -0.4828
     18 C         137.8826  140.2327  159.8786 C.3     1  UNL1        0.0616
     19 C         137.9777  139.9833  161.3547 C.3     1  UNL1        0.0985
     20 H         137.5027  140.1203  163.9569 H       1  UNL1        0.1509
     21 C         138.2631  139.2351  165.7829 C.3     1  UNL1        0.0774
     22 C         137.7262  138.5971  167.0298 C.3     1  UNL1        0.0259
     23 C         138.9646  139.4412  167.0927 C.3     1  UNL1        0.0420
     24 C         140.0845  140.0475  167.8851 C.ar    1  UNL1       -0.0208
     25 C         141.4975  139.9342  167.3945 C.ar    1  UNL1       -0.0042
     26 C         142.6175  140.5405  168.1870 C.ar    1  UNL1       -0.0003
     27 C         142.3245  141.2602  169.4700 C.ar    1  UNL1       -0.0000
     28 C         140.9115  141.3736  169.9606 C.ar    1  UNL1       -0.0003
     29 C         139.7915  140.7672  169.1681 C.ar    1  UNL1       -0.0042
@<TRIPOS>BOND
     1     1     2    2
     2     2     3   am
     3    21     3    1
     4    21    22    1
     5    22    23    1
     6    23    24    1
     7    24    25   ar
     8    25    26   ar
     9    26    27   ar
    10    27    28   ar
    11    28    29   ar
    12     2     4   am
    13     4     5    1
    14     5     6    1
    15     6     7    1
    16     7     8    1
    17     8     9    1
    18     9    10    1
    19    10    11   ar
    20    11    12   ar
    21    12    13    1
    22    12    14   ar
    23    14    15   ar
    24    15    16   ar
    25    16    17    1
    26     7    18    1
    27    18    19    1
    28    23    21    1
    29    29    24   ar
    30    19     4    1
    31    17     7    1
    32    16    10   ar
    33     3    20    1
@<TRIPOS>MOLECULE
*****
 29 33 0 0 0
SMALL
GASTEIGER

@<TRIPOS>ATOM
      1 O         139.6203  141.1455  156.6015 O.2     1  UNL1       -0.2526
      2 C         140.4995  140.3884  157.5521 C.2     1  UNL1        0.3039
      3 N         140.8329  140.9729  158.8927 N.am    1  UNL1       -0.2901
      4 N         141.0454  139.0467  157.1621 N.am    1  UNL1       -0.2640
      5 C         140.7121  138.4623  155.8215 C.3     1  UNL1        0.0985
      6 C         141.2579  137.1207  155.4316 C.3     1  UNL1        0.0616
      7 C         142.1372  136.3636  156.3822 C.3     1  UNL1        0.1367
      8 C         141.8038  135.7790  155.0416 C.3     1  UNL1        0.0449
      9 C         142.3497  134.4374  154.6516 C.3     1  UNL1        0.0331
     10 C         143.2290  133.6803  155.6023 C.ar    1  UNL1        0.0141
     11 C         143.7749  132.3387  155.2122 C.ar    1  UNL1        0.0284
     12 C         144.6541  131.5815  156.1629 C.ar    1  UNL1        0.1400
     13 F         145.2000  130.2400  155.7729 F       1  UNL1       -0.2042
     14 C         144.9875  132.1661  157.5035 C.ar    1  UNL1        0.0327
     15 C         144.4416  133.5077  157.8935 C.ar    1  UNL1        0.0389
     16 C         143.5623  134.2648  156.9428 C.ar    1  UNL1        0.1343
     17 O         143.0165  135.6065  157.3329 O.3     1  UNL1       -0.4828
     18 C         142.4706  136.9480  157.7228 C.3     1  UNL1        0.0616
     19 C         141.9247  138.2896  158.1127 C.3     1  UNL1        0.0985
     20 H         141.4100  140.4760  159.5166 H       1  UNL1        0.1509
     21 C         140.2870  142.3145  159.2827 C.3     1  UNL1        0.0774
     22 C         139.9822  143.7426  158.9397 C.3     1  UNL1        0.0259
     23 C         139.6463  143.2102  160.3012 C.3     1  UNL1        0.0420
     24 C         139.0825  143.4199  161.6753 C.ar    1  UNL1       -0.0208
     25 C         138.0031  142.5141  162.1893 C.ar    1  UNL1       -0.0042
     26 C         137.4393  142.7238  163.5634 C.ar    1  UNL1       -0.0003
     27 C         137.9549  143.8394  164.4235 C.ar    1  UNL1       -0.0000
     28 C         139.0344  144.7452  163.9094 C.ar    1  UNL1       -0.0003
     29 C         139.5982  144.5355  162.5352 C.ar    1  UNL1       -0.0042
@<TRIPOS>BOND
     1     1     2    2
     2     2     3   am
     3    21     3    1
     4    21    22    1
     5    22    23    1
     6    23    24    1
     7    24    25   ar
     8    25    26   ar
     9    26    27   ar
    10    27    28   ar
    11    28    29   ar
    12     2     4   am
    13     4     5    1
    14     5     6    1
    15     6     7    1
    16     7     8    1
    17     8     9    1
    18     9    10    1
    19    10    11   ar
    20    11    12   ar
    21    12    13    1
    22    12    14   ar
    23    14    15   ar
    24    15    16   ar
    25    16    17    1
    26     7    18    1
    27    18    19    1
    28    23    21    1
    29    29    24   ar
    30    19     4    1
    31    17     7    1
    32    16    10   ar
    33     3    20    1
@<TRIPOS>MOLECULE
*****
 29 33 0 0 0
SMALL
GASTEIGER

@<TRIPOS>ATOM
      1 O         140.6300  141.8655  162.3960 O.2     1  UNL1       -0.2526
      2 C         141.7776  140.9786  162.0134 C.2     1  UNL1        0.3039
      3 N         143.0397  140.9935  162.8239 N.am    1  UNL1       -0.2901
      4 N         141.6632  140.0769  160.8201 N.am    1  UNL1       -0.2640
      5 C         140.4011  140.0620  160.0096 C.3     1  UNL1        0.0985
      6 C         140.2867  139.1602  158.8165 C.3     1  UNL1        0.0616
      7 C         141.4344  138.2734  158.4338 C.3     1  UNL1        0.1367
      8 C         140.1723  138.2584  157.6232 C.3     1  UNL1        0.0449
      9 C         140.0579  137.3567  156.4300 C.3     1  UNL1        0.0331
     10 C         141.2055  136.4698  156.0474 C.ar    1  UNL1        0.0141
     11 C         141.0910  135.5680  154.8541 C.ar    1  UNL1        0.0284
     12 C         142.2387  134.6812  154.4715 C.ar    1  UNL1        0.1400
     13 F         142.1243  133.7794  153.2783 F       1  UNL1       -0.2042
     14 C         143.5008  134.6961  155.2821 C.ar    1  UNL1        0.0327
     15 C         143.6152  135.5979  156.4752 C.ar    1  UNL1        0.0389
     16 C         142.4675  136.4847  156.8579 C.ar    1  UNL1        0.1343
     17 O         142.5820  137.3865  158.0511 O.3     1  UNL1       -0.4828
     18 C         142.6964  138.2882  159.2443 C.3     1  UNL1        0.0616
     19 C         142.8108  139.1900  160.4375 C.3     1  UNL1        0.0985
     20 H         143.7929  140.4114  162.5728 H       1  UNL1        0.1509
     21 C         143.1541  141.8953  164.0172 C.3     1  UNL1        0.0774
     22 C         143.3608  143.2634  164.5964 C.3     1  UNL1        0.0259
     23 C         143.1457  142.0891  165.5046 C.3     1  UNL1        0.0420
     24 C         143.0166  141.5230  166.8876 C.ar    1  UNL1       -0.0208
     25 C         143.3316  142.3769  168.0799 C.ar    1  UNL1       -0.0042
     26 C         143.2025  141.8108  169.4630 C.ar    1  UNL1       -0.0003
     27 C         142.7585  140.3907  169.6537 C.ar    1  UNL1       -0.0000
     28 C         142.4436  139.5368  168.4614 C.ar    1  UNL1       -0.0003
     29 C         142.5727  140.1030  167.0783 C.ar    1  UNL1       -0.0042
@<TRIPOS>BOND
     1     1     2    2
     2     2     3   am
     3    21     3    1
     4    21    22    1
     5    22    23    1
     6    23    24    1
     7    24    25   ar
     8    25    26   ar
     9    26    27   ar
    10    27    28   ar
    11    28    29   ar
    12     2     4   am
    13     4     5    1
    14     5     6    1
    15     6     7    1
    16     7     8    1
    17     8     9    1
    18     9    10    1
    19    10    11   ar
    20    11    12   ar
    21    12    13    1
    22    12    14   ar
    23    14    15   ar
    24    15    16   ar
    25    16    17    1
    26     7    18    1
    27    18    19    1
    28    23    21    1
    29    29    24   ar
    30    19     4    1
    31    17     7    1
    32    16    10   ar
    33     3    20    1
