@<TRIPOS>MOLECULE
*****
 30 34 0 0 0
SMALL
GASTEIGER

@<TRIPOS>ATOM
      1 C         140.8226  141.5777  168.4360 C.3     1  UNL1        0.1726
      2 O         141.3036  142.4862  167.3437 O.3     1  UNL1       -0.4792
      3 C         140.7755  142.3271  165.9488 C.ar    1  UNL1        0.1362
      4 C         141.2566  143.2356  164.8565 C.ar    1  UNL1        0.0366
      5 C         140.7285  143.0764  163.4616 C.ar    1  UNL1        0.0032
      6 C         139.7193  142.0087  163.1590 C.ar    1  UNL1        0.0029
      7 C         139.2383  141.1001  164.2513 C.ar    1  UNL1        0.0007
      8 C         139.7664  141.2593  165.6462 C.ar    1  UNL1        0.0357
      9 C         139.2854  140.3508  166.7385 C.3     1  UNL1        0.1582
     10 C         138.6702  140.0732  165.3989 C.3     1  UNL1        0.2351
     11 O         137.7188  138.9239  165.5549 O.2     1  UNL1       -0.4478
     12 C         137.7460  138.4913  166.9908 C.2     1  UNL1        0.2770
     13 N         136.9456  137.3732  167.5901 N.pl3   1  UNL1       -0.3133
     14 N         138.7142  139.3731  167.7224 N.2     1  UNL1       -0.2202
     15 C         139.8134  140.5100  168.1334 C.3     1  UNL1        0.1174
     16 C         139.9477  140.7634  167.8287 C.3     1  UNL1        0.1502
     17 O         139.8066  140.4970  168.1490 O.3     1  UNL1       -0.3532
     18 C         139.9477  140.7634  167.8287 C.3     1  UNL1        0.1502
     19 H         136.3332  136.8485  167.0253 H       1  UNL1        0.1466
     20 H         137.0325  137.1640  168.5481 H       1  UNL1        0.1466
     21 C         139.1913  141.8495  161.7641 C.ar    1  UNL1        0.0384
     22 C         139.0711  143.0454  160.8666 C.ar    1  UNL1        0.1022
     23 N         138.5430  142.8862  159.4717 N.ar    1  UNL1       -0.2224
     24 C         138.1351  141.5312  158.9742 C.ar    1  UNL1        0.1989
     25 N         138.2553  140.3353  159.8716 N.ar    1  UNL1       -0.2224
     26 C         138.7834  140.4945  161.2666 C.ar    1  UNL1        0.1022
     27 C         141.3507  141.7369  169.8309 C.3     1  UNL1        0.0438
     28 C         143.8748  142.3480  169.9043 C.3     1  UNL1        0.0001
     29 C         142.7693  141.3626  170.1431 C.3     1  UNL1        0.0036
     30 C         143.0824  140.0031  170.6940 C.3     1  UNL1        0.0001
@<TRIPOS>BOND
     1    28    29    1
     2    29    30    1
     3    29    27    1
     4    27     1    1
     5     1     2    1
     6     2     3    1
     7     3     4   ar
     8     4     5   ar
     9     5     6   ar
    10     6    21    1
    11    21    22   ar
    12    22    23   ar
    13    23    24   ar
    14    24    25   ar
    15    25    26   ar
    16     6     7   ar
    17     7     8   ar
    18     8     9    1
    19     9    10    1
    20    10    11    1
    21    11    12    1
    22    12    13    1
    23    12    14    2
    24     9    15    1
    25    15    16    1
    26    16    17    1
    27    17    18    1
    28    15     1    1
    29     8     3   ar
    30    14     9    1
    31    18    15    1
    32    26    21   ar
    33    13    19    1
    34    13    20    1
@<TRIPOS>MOLECULE
*****
 30 34 0 0 0
SMALL
GASTEIGER

@<TRIPOS>ATOM
      1 C         141.0262  141.3373  168.1325 C.3     1  UNL1        0.1726
      2 O         141.5441  142.0805  166.9369 O.3     1  UNL1       -0.4792
      3 C         140.9505  141.8290  165.5825 C.ar    1  UNL1        0.1362
      4 C         141.4684  142.5721  164.3869 C.ar    1  UNL1        0.0366
      5 C         140.8748  142.3207  163.0325 C.ar    1  UNL1        0.0032
      6 C         139.7632  141.3260  162.8738 C.ar    1  UNL1        0.0029
      7 C         139.2453  140.5828  164.0694 C.ar    1  UNL1        0.0007
      8 C         139.8390  140.8344  165.4238 C.ar    1  UNL1        0.0357
      9 C         139.3211  140.0912  166.6194 C.3     1  UNL1        0.1582
     10 C         138.6324  139.7362  165.3350 C.3     1  UNL1        0.2351
     11 O         137.5887  138.7024  165.6391 O.2     1  UNL1       -0.4478
     12 C         137.6325  138.4186  167.1113 C.2     1  UNL1        0.2770
     13 N         136.7590  137.4471  167.8482 N.pl3   1  UNL1       -0.3133
     14 N         138.7032  139.2769  167.7172 N.2     1  UNL1       -0.2202
     15 C         139.9147  140.3427  167.9738 C.3     1  UNL1        0.1174
     16 C         140.0592  140.5500  167.6402 C.3     1  UNL1        0.1502
     17 O         139.9074  140.3321  167.9909 O.3     1  UNL1       -0.3532
     18 C         140.0592  140.5500  167.6402 C.3     1  UNL1        0.1502
     19 H         136.0808  136.9265  167.3600 H       1  UNL1        0.1466
     20 H         136.8638  137.3301  168.8201 H       1  UNL1        0.1466
     21 C         139.1696  141.0745  161.5194 C.ar    1  UNL1        0.0384
     22 C         138.0776  140.0591  161.3559 C.ar    1  UNL1        0.1022
     23 N         137.4840  139.8076  160.0015 N.ar    1  UNL1       -0.2224
     24 C         137.9823  140.5715  158.8106 C.ar    1  UNL1        0.1989
     25 N         139.0742  141.5868  158.9741 N.ar    1  UNL1       -0.2224
     26 C         139.6679  141.8383  160.3285 C.ar    1  UNL1        0.1022
     27 C         141.6199  141.5889  169.4869 C.3     1  UNL1        0.0438
     28 C         140.5169  143.9118  169.8575 C.3     1  UNL1        0.0001
     29 C         141.6841  142.9856  170.0300 C.3     1  UNL1        0.0036
     30 C         142.9155  143.4562  170.7457 C.3     1  UNL1        0.0001
@<TRIPOS>BOND
     1    28    29    1
     2    29    30    1
     3    29    27    1
     4    27     1    1
     5     1     2    1
     6     2     3    1
     7     3     4   ar
     8     4     5   ar
     9     5     6   ar
    10     6    21    1
    11    21    22   ar
    12    22    23   ar
    13    23    24   ar
    14    24    25   ar
    15    25    26   ar
    16     6     7   ar
    17     7     8   ar
    18     8     9    1
    19     9    10    1
    20    10    11    1
    21    11    12    1
    22    12    13    1
    23    12    14    2
    24     9    15    1
    25    15    16    1
    26    16    17    1
    27    17    18    1
    28    15     1    1
    29     8     3   ar
    30    14     9    1
    31    18    15    1
    32    26    21   ar
    33    13    19    1
    34    13    20    1
@<TRIPOS>MOLECULE
*****
 30 34 0 0 0
SMALL
GASTEIGER

@<TRIPOS>ATOM
      1 C         138.1785  140.7002  161.7204 C.3     1  UNL1        0.1726
      2 O         138.1460  139.6672  162.8076 O.3     1  UNL1       -0.4792
      3 C         138.6200  140.0155  164.1874 C.ar    1  UNL1        0.1362
      4 C         138.5876  138.9825  165.2746 C.ar    1  UNL1        0.0366
      5 C         139.0616  139.3307  166.6544 C.ar    1  UNL1        0.0032
      6 C         139.5680  140.7120  166.9472 C.ar    1  UNL1        0.0029
      7 C         139.6005  141.7450  165.8600 C.ar    1  UNL1        0.0007
      8 C         139.1264  141.3967  164.4801 C.ar    1  UNL1        0.0357
      9 C         139.1589  142.4297  163.3930 C.3     1  UNL1        0.1582
     10 C         139.6628  142.9218  164.7174 C.3     1  UNL1        0.2351
     11 O         140.0657  144.3577  164.5556 O.2     1  UNL1       -0.4478
     12 C         139.8108  144.7530  163.1312 C.2     1  UNL1        0.2770
     13 N         140.0706  146.1028  162.5309 N.pl3   1  UNL1       -0.3133
     14 N         139.2503  143.5614  162.4127 N.2     1  UNL1       -0.2202
     15 C         138.6849  142.0814  162.0131 C.3     1  UNL1        0.1174
     16 C         138.6758  141.7932  162.3164 C.3     1  UNL1        0.1502
     17 O         138.6854  142.0962  161.9976 O.3     1  UNL1       -0.3532
     18 C         138.6758  141.7932  162.3164 C.3     1  UNL1        0.1502
     19 H         140.4423  146.8254  163.0866 H       1  UNL1        0.1466
     20 H         139.8695  146.2660  161.5811 H       1  UNL1        0.1466
     21 C         140.0420  141.0603  168.3270 C.ar    1  UNL1        0.0384
     22 C         139.5030  140.3191  169.5146 C.ar    1  UNL1        0.1022
     23 N         139.9769  140.6674  170.8944 N.ar    1  UNL1       -0.2224
     24 C         140.9900  141.7567  171.0868 C.ar    1  UNL1        0.1989
     25 N         141.5290  142.4979  169.8993 N.ar    1  UNL1       -0.2224
     26 C         141.0551  142.1496  168.5194 C.ar    1  UNL1        0.1022
     27 C         137.7045  140.3519  160.3405 C.3     1  UNL1        0.0438
     28 C         138.6345  140.2838  157.9155 C.3     1  UNL1        0.0001
     29 C         138.6685  139.7972  159.3341 C.3     1  UNL1        0.0036
     30 C         139.6665  138.7560  159.7461 C.3     1  UNL1        0.0001
@<TRIPOS>BOND
     1    28    29    1
     2    29    30    1
     3    29    27    1
     4    27     1    1
     5     1     2    1
     6     2     3    1
     7     3     4   ar
     8     4     5   ar
     9     5     6   ar
    10     6    21    1
    11    21    22   ar
    12    22    23   ar
    13    23    24   ar
    14    24    25   ar
    15    25    26   ar
    16     6     7   ar
    17     7     8   ar
    18     8     9    1
    19     9    10    1
    20    10    11    1
    21    11    12    1
    22    12    13    1
    23    12    14    2
    24     9    15    1
    25    15    16    1
    26    16    17    1
    27    17    18    1
    28    15     1    1
    29     8     3   ar
    30    14     9    1
    31    18    15    1
    32    26    21   ar
    33    13    19    1
    34    13    20    1
@<TRIPOS>MOLECULE
*****
 30 34 0 0 0
SMALL
GASTEIGER

@<TRIPOS>ATOM
      1 C         141.1767  142.3009  167.0537 C.3     1  UNL1        0.1726
      2 O         140.3239  143.3364  166.3825 O.3     1  UNL1       -0.4792
      3 C         140.5352  143.6570  164.9325 C.ar    1  UNL1        0.1362
      4 C         139.6824  144.6925  164.2613 C.ar    1  UNL1        0.0366
      5 C         139.8937  145.0130  162.8113 C.ar    1  UNL1        0.0032
      6 C         140.9578  144.2980  162.0324 C.ar    1  UNL1        0.0029
      7 C         141.8106  143.2625  162.7036 C.ar    1  UNL1        0.0007
      8 C         141.5993  142.9420  164.1537 C.ar    1  UNL1        0.0357
      9 C         142.4521  141.9065  164.8249 C.3     1  UNL1        0.1582
     10 C         142.7779  142.1197  163.3762 C.3     1  UNL1        0.2351
     11 O         143.9044  141.1977  163.0140 O.2     1  UNL1       -0.4478
     12 C         144.2747  140.4148  164.2386 C.2     1  UNL1        0.2770
     13 N         145.3533  139.3763  164.3284 N.pl3   1  UNL1       -0.3133
     14 N         143.3772  140.8529  165.3579 N.2     1  UNL1       -0.2202
     15 C         142.2408  141.5860  166.2749 C.3     1  UNL1        0.1174
     16 C         142.0029  141.8749  166.0876 C.3     1  UNL1        0.1502
     17 O         142.2530  141.5712  166.2844 O.3     1  UNL1       -0.3532
     18 C         142.0029  141.8749  166.0876 C.3     1  UNL1        0.1502
     19 H         145.8924  139.1566  163.5345 H       1  UNL1        0.1466
     20 H         145.5220  138.9143  165.1812 H       1  UNL1        0.1466
     21 C         141.1690  144.6186  160.5824 C.ar    1  UNL1        0.0384
     22 C         140.1926  145.4978  159.8586 C.ar    1  UNL1        0.1022
     23 N         140.4039  145.8183  158.4086 N.ar    1  UNL1       -0.2224
     24 C         141.5915  145.2597  157.6823 C.ar    1  UNL1        0.1989
     25 N         142.5679  144.3806  158.4060 N.ar    1  UNL1       -0.2224
     26 C         142.3567  144.0600  159.8561 C.ar    1  UNL1        0.1022
     27 C         140.9654  141.9804  168.5038 C.3     1  UNL1        0.0438
     28 C         140.3929  144.0593  169.9530 C.3     1  UNL1        0.0001
     29 C         141.3523  142.9767  169.5562 C.3     1  UNL1        0.0036
     30 C         142.6987  142.8904  170.2119 C.3     1  UNL1        0.0001
@<TRIPOS>BOND
     1    28    29    1
     2    29    30    1
     3    29    27    1
     4    27     1    1
     5     1     2    1
     6     2     3    1
     7     3     4   ar
     8     4     5   ar
     9     5     6   ar
    10     6    21    1
    11    21    22   ar
    12    22    23   ar
    13    23    24   ar
    14    24    25   ar
    15    25    26   ar
    16     6     7   ar
    17     7     8   ar
    18     8     9    1
    19     9    10    1
    20    10    11    1
    21    11    12    1
    22    12    13    1
    23    12    14    2
    24     9    15    1
    25    15    16    1
    26    16    17    1
    27    17    18    1
    28    15     1    1
    29     8     3   ar
    30    14     9    1
    31    18    15    1
    32    26    21   ar
    33    13    19    1
    34    13    20    1
@<TRIPOS>MOLECULE
*****
 30 34 0 0 0
SMALL
GASTEIGER

@<TRIPOS>ATOM
      1 C         141.1272  142.5050  166.6668 C.3     1  UNL1        0.1726
      2 O         142.4221  141.8459  166.2943 O.3     1  UNL1       -0.4792
      3 C         142.7996  141.6969  164.8503 C.ar    1  UNL1        0.1362
      4 C         144.0945  141.0377  164.4778 C.ar    1  UNL1        0.0366
      5 C         144.4720  140.8887  163.0338 C.ar    1  UNL1        0.0032
      6 C         143.5545  141.3987  161.9622 C.ar    1  UNL1        0.0029
      7 C         142.2596  142.0578  162.3347 C.ar    1  UNL1        0.0007
      8 C         141.8821  142.2069  163.7788 C.ar    1  UNL1        0.0357
      9 C         140.5872  142.8660  164.1513 C.3     1  UNL1        0.1582
     10 C         140.8291  142.7883  162.6729 C.3     1  UNL1        0.2351
     11 O         139.6581  143.4176  161.9779 O.2     1  UNL1       -0.4478
     12 C         138.6926  143.8842  163.0267 C.2     1  UNL1        0.2770
     13 N         137.3829  144.5711  162.7763 N.pl3   1  UNL1       -0.3133
     14 N         139.2668  143.5433  164.3700 N.2     1  UNL1       -0.2202
     15 C         140.2097  143.0151  165.5953 C.3     1  UNL1        0.1174
     16 C         140.5710  142.8312  165.4914 C.3     1  UNL1        0.1502
     17 O         140.1913  143.0245  165.6006 O.3     1  UNL1       -0.3532
     18 C         140.5710  142.8312  165.4914 C.3     1  UNL1        0.1502
     19 H         137.0906  144.7524  161.8538 H       1  UNL1        0.1466
     20 H         136.8156  144.8407  163.5344 H       1  UNL1        0.1466
     21 C         143.9320  141.2497  160.5181 C.ar    1  UNL1        0.0384
     22 C         144.4680  142.4263  159.7577 C.ar    1  UNL1        0.1022
     23 N         144.8455  142.2773  158.3137 N.ar    1  UNL1       -0.2224
     24 C         144.6870  140.9516  157.6300 C.ar    1  UNL1        0.1989
     25 N         144.1511  139.7749  158.3904 N.ar    1  UNL1       -0.2224
     26 C         143.7736  139.9239  159.8345 C.ar    1  UNL1        0.1022
     27 C         140.7497  142.6541  168.1109 C.3     1  UNL1        0.0438
     28 C         139.9449  140.1842  168.1570 C.3     1  UNL1        0.0001
     29 C         140.1290  141.5036  168.8465 C.3     1  UNL1        0.0036
     30 C         139.6924  141.6724  170.2716 C.3     1  UNL1        0.0001
@<TRIPOS>BOND
     1    28    29    1
     2    29    30    1
     3    29    27    1
     4    27     1    1
     5     1     2    1
     6     2     3    1
     7     3     4   ar
     8     4     5   ar
     9     5     6   ar
    10     6    21    1
    11    21    22   ar
    12    22    23   ar
    13    23    24   ar
    14    24    25   ar
    15    25    26   ar
    16     6     7   ar
    17     7     8   ar
    18     8     9    1
    19     9    10    1
    20    10    11    1
    21    11    12    1
    22    12    13    1
    23    12    14    2
    24     9    15    1
    25    15    16    1
    26    16    17    1
    27    17    18    1
    28    15     1    1
    29     8     3   ar
    30    14     9    1
    31    18    15    1
    32    26    21   ar
    33    13    19    1
    34    13    20    1
@<TRIPOS>MOLECULE
*****
 30 34 0 0 0
SMALL
GASTEIGER

@<TRIPOS>ATOM
      1 C         140.1583  140.5597  167.7425 C.3     1  UNL1        0.1726
      2 O         139.9602  142.0078  167.4053 O.3     1  UNL1       -0.4792
      3 C         140.0500  142.4651  165.9796 C.ar    1  UNL1        0.1362
      4 C         139.8518  143.9132  165.6424 C.ar    1  UNL1        0.0366
      5 C         139.9416  144.3704  164.2167 C.ar    1  UNL1        0.0032
      6 C         140.2296  143.3795  163.1280 C.ar    1  UNL1        0.0029
      7 C         140.4278  141.9314  163.4651 C.ar    1  UNL1        0.0007
      8 C         140.3379  141.4742  164.8910 C.ar    1  UNL1        0.0357
      9 C         140.5361  140.0260  165.2281 C.3     1  UNL1        0.1582
     10 C         140.6548  140.3335  163.7647 C.3     1  UNL1        0.2351
     11 O         140.9480  139.0511  163.0439 O.2     1  UNL1       -0.4478
     12 C         141.0106  137.9511  164.0617 C.2     1  UNL1        0.2770
     13 N         141.2803  136.5028  163.7792 N.pl3   1  UNL1       -0.3133
     14 N         140.7560  138.5536  165.4117 N.2     1  UNL1       -0.2202
     15 C         140.4463  139.5688  166.6539 C.3     1  UNL1        0.1174
     16 C         140.3910  139.9728  166.5598 C.3     1  UNL1        0.1502
     17 O         140.4491  139.5482  166.6587 O.3     1  UNL1       -0.3532
     18 C         140.3910  139.9728  166.5598 C.3     1  UNL1        0.1502
     19 H         141.4363  136.2024  162.8548 H       1  UNL1        0.1466
     20 H         141.3014  135.8528  164.5183 H       1  UNL1        0.1466
     21 C         140.3194  143.8367  161.7022 C.ar    1  UNL1        0.0384
     22 C         139.3151  143.3576  160.6962 C.ar    1  UNL1        0.1022
     23 N         139.4049  143.8148  159.2705 N.ar    1  UNL1       -0.2224
     24 C         140.4990  144.7511  158.8506 C.ar    1  UNL1        0.1989
     25 N         141.5033  145.2302  159.8565 N.ar    1  UNL1       -0.2224
     26 C         141.4135  144.7730  161.2823 C.ar    1  UNL1        0.1022
     27 C         140.0685  140.1025  169.1683 C.3     1  UNL1        0.0438
     28 C         142.3490  139.0880  169.8897 C.3     1  UNL1        0.0001
     29 C         141.2856  140.1347  170.0444 C.3     1  UNL1        0.0036
     30 C         141.4395  141.2136  171.0750 C.3     1  UNL1        0.0001
@<TRIPOS>BOND
     1    28    29    1
     2    29    30    1
     3    29    27    1
     4    27     1    1
     5     1     2    1
     6     2     3    1
     7     3     4   ar
     8     4     5   ar
     9     5     6   ar
    10     6    21    1
    11    21    22   ar
    12    22    23   ar
    13    23    24   ar
    14    24    25   ar
    15    25    26   ar
    16     6     7   ar
    17     7     8   ar
    18     8     9    1
    19     9    10    1
    20    10    11    1
    21    11    12    1
    22    12    13    1
    23    12    14    2
    24     9    15    1
    25    15    16    1
    26    16    17    1
    27    17    18    1
    28    15     1    1
    29     8     3   ar
    30    14     9    1
    31    18    15    1
    32    26    21   ar
    33    13    19    1
    34    13    20    1
@<TRIPOS>MOLECULE
*****
 30 34 0 0 0
SMALL
GASTEIGER

@<TRIPOS>ATOM
      1 C         139.0871  139.6507  165.9581 C.3     1  UNL1        0.1726
      2 O         139.9670  138.5674  165.4083 O.3     1  UNL1       -0.4792
      3 C         140.4588  138.6464  163.9935 C.ar    1  UNL1        0.1362
      4 C         141.3387  137.5631  163.4438 C.ar    1  UNL1        0.0366
      5 C         141.8305  137.6421  162.0289 C.ar    1  UNL1        0.0032
      6 C         141.4424  138.8044  161.1637 C.ar    1  UNL1        0.0029
      7 C         140.5625  139.8877  161.7134 C.ar    1  UNL1        0.0007
      8 C         140.0707  139.8087  163.1284 C.ar    1  UNL1        0.0357
      9 C         139.1908  140.8920  163.6781 C.3     1  UNL1        0.1582
     10 C         139.6034  141.1061  162.2519 C.3     1  UNL1        0.2351
     11 O         138.9895  142.3907  161.7796 O.2     1  UNL1       -0.4478
     12 C         138.1975  142.9705  162.9139 C.2     1  UNL1        0.2770
     13 N         137.4180  144.2516  162.8806 N.pl3   1  UNL1       -0.3133
     14 N         138.3219  142.0443  164.0872 N.2     1  UNL1       -0.2202
     15 C         138.6990  140.8130  165.0929 C.3     1  UNL1        0.1174
     16 C         138.9445  140.5108  164.9396 C.3     1  UNL1        0.1502
     17 O         138.6864  140.8285  165.1008 O.3     1  UNL1       -0.3532
     18 C         138.9445  140.5108  164.9396 C.3     1  UNL1        0.1502
     19 H         137.3968  144.7937  162.0591 H       1  UNL1        0.1466
     20 H         136.9277  144.5504  163.6804 H       1  UNL1        0.1466
     21 C         141.9343  138.8834  159.7489 C.ar    1  UNL1        0.0384
     22 C         141.0208  138.5199  158.6159 C.ar    1  UNL1        0.1022
     23 N         141.5126  138.5989  157.2010 N.ar    1  UNL1       -0.2224
     24 C         142.9179  139.0413  156.9191 C.ar    1  UNL1        0.1989
     25 N         143.8313  139.4047  158.0520 N.ar    1  UNL1       -0.2224
     26 C         143.3395  139.3257  159.4669 C.ar    1  UNL1        0.1022
     27 C         138.5952  139.5717  167.3730 C.3     1  UNL1        0.0438
     28 C         140.9484  140.1898  168.2844 C.3     1  UNL1        0.0001
     29 C         139.4719  140.0347  168.4987 C.3     1  UNL1        0.0036
     30 C         138.8720  140.3425  169.8386 C.3     1  UNL1        0.0001
@<TRIPOS>BOND
     1    28    29    1
     2    29    30    1
     3    29    27    1
     4    27     1    1
     5     1     2    1
     6     2     3    1
     7     3     4   ar
     8     4     5   ar
     9     5     6   ar
    10     6    21    1
    11    21    22   ar
    12    22    23   ar
    13    23    24   ar
    14    24    25   ar
    15    25    26   ar
    16     6     7   ar
    17     7     8   ar
    18     8     9    1
    19     9    10    1
    20    10    11    1
    21    11    12    1
    22    12    13    1
    23    12    14    2
    24     9    15    1
    25    15    16    1
    26    16    17    1
    27    17    18    1
    28    15     1    1
    29     8     3   ar
    30    14     9    1
    31    18    15    1
    32    26    21   ar
    33    13    19    1
    34    13    20    1
@<TRIPOS>MOLECULE
*****
 30 34 0 0 0
SMALL
GASTEIGER

@<TRIPOS>ATOM
      1 C         141.2741  144.7069  161.5701 C.3     1  UNL1        0.1726
      2 O         140.1193  144.8631  162.5145 O.3     1  UNL1       -0.4792
      3 C         140.1990  144.2893  163.8981 C.ar    1  UNL1        0.1362
      4 C         139.0442  144.4455  164.8425 C.ar    1  UNL1        0.0366
      5 C         139.1239  143.8716  166.2261 C.ar    1  UNL1        0.0032
      6 C         140.3585  143.1415  166.6653 C.ar    1  UNL1        0.0029
      7 C         141.5134  142.9853  165.7208 C.ar    1  UNL1        0.0007
      8 C         141.4336  143.5592  164.3372 C.ar    1  UNL1        0.0357
      9 C         142.5884  143.4030  163.3927 C.3     1  UNL1        0.1582
     10 C         142.8119  142.7787  164.7383 C.3     1  UNL1        0.2351
     11 O         144.1779  142.1589  164.7405 O.2     1  UNL1       -0.4478
     12 C         144.7986  142.4000  163.3964 C.2     1  UNL1        0.2770
     13 N         146.1622  141.9511  162.9616 N.pl3   1  UNL1       -0.3133
     14 N         143.8162  143.1689  162.5634 N.2     1  UNL1       -0.2202
     15 C         142.5087  143.9769  162.0091 C.3     1  UNL1        0.1174
     16 C         142.1865  144.0204  162.2727 C.3     1  UNL1        0.1502
     17 O         142.5251  143.9746  161.9957 O.3     1  UNL1       -0.3532
     18 C         142.1865  144.0204  162.2727 C.3     1  UNL1        0.1502
     19 H         146.7367  141.4490  163.5838 H       1  UNL1        0.1466
     20 H         146.4826  142.1586  162.0542 H       1  UNL1        0.1466
     21 C         140.4383  142.5676  168.0488 C.ar    1  UNL1        0.0384
     22 C         140.4178  143.4781  169.2408 C.ar    1  UNL1        0.1022
     23 N         140.4975  142.9043  170.6243 N.ar    1  UNL1       -0.2224
     24 C         140.5977  141.4199  170.8160 C.ar    1  UNL1        0.1989
     25 N         140.6182  140.5095  169.6242 N.ar    1  UNL1       -0.2224
     26 C         140.5385  141.0833  168.2405 C.ar    1  UNL1        0.1022
     27 C         141.1943  145.2808  160.1864 C.3     1  UNL1        0.0438
     28 C         140.3962  145.0985  157.7207 C.3     1  UNL1        0.0001
     29 C         140.3997  144.5765  159.1270 C.3     1  UNL1        0.0036
     30 C         139.6087  143.3501  159.4737 C.3     1  UNL1        0.0001
@<TRIPOS>BOND
     1    28    29    1
     2    29    30    1
     3    29    27    1
     4    27     1    1
     5     1     2    1
     6     2     3    1
     7     3     4   ar
     8     4     5   ar
     9     5     6   ar
    10     6    21    1
    11    21    22   ar
    12    22    23   ar
    13    23    24   ar
    14    24    25   ar
    15    25    26   ar
    16     6     7   ar
    17     7     8   ar
    18     8     9    1
    19     9    10    1
    20    10    11    1
    21    11    12    1
    22    12    13    1
    23    12    14    2
    24     9    15    1
    25    15    16    1
    26    16    17    1
    27    17    18    1
    28    15     1    1
    29     8     3   ar
    30    14     9    1
    31    18    15    1
    32    26    21   ar
    33    13    19    1
    34    13    20    1
@<TRIPOS>MOLECULE
*****
 30 34 0 0 0
SMALL
GASTEIGER

@<TRIPOS>ATOM
      1 C         141.9377  141.5464  166.9390 C.3     1  UNL1        0.1726
      2 O         142.0317  140.1084  166.5227 O.3     1  UNL1       -0.4792
      3 C         141.9733  139.7430  165.0691 C.ar    1  UNL1        0.1362
      4 C         142.0673  138.3050  164.6528 C.ar    1  UNL1        0.0366
      5 C         142.0089  137.9396  163.1992 C.ar    1  UNL1        0.0032
      6 C         141.8563  139.0123  162.1618 C.ar    1  UNL1        0.0029
      7 C         141.7623  140.4503  162.5780 C.ar    1  UNL1        0.0007
      8 C         141.8207  140.8156  164.0318 C.ar    1  UNL1        0.0357
      9 C         141.7267  142.2537  164.4480 C.3     1  UNL1        0.1582
     10 C         141.6537  142.0419  162.9648 C.3     1  UNL1        0.2351
     11 O         141.5022  143.3838  162.3118 O.2     1  UNL1       -0.4478
     12 C         141.4817  144.4250  163.3914 C.2     1  UNL1        0.2770
     13 N         141.3462  145.9047  163.1868 N.pl3   1  UNL1       -0.3133
     14 N         141.6204  143.7265  164.7117 N.2     1  UNL1       -0.2202
     15 C         141.7852  142.6190  165.9017 C.3     1  UNL1        0.1174
     16 C         141.8114  142.2178  165.7855 C.3     1  UNL1        0.1502
     17 O         141.7838  142.6395  165.9076 O.3     1  UNL1       -0.3532
     18 C         141.8114  142.2178  165.7855 C.3     1  UNL1        0.1502
     19 H         141.2603  146.2699  162.2766 H       1  UNL1        0.1466
     20 H         141.3433  146.5107  163.9626 H       1  UNL1        0.1466
     21 C         141.7979  138.6470  160.7082 C.ar    1  UNL1        0.0384
     22 C         143.0350  138.1753  160.0030 C.ar    1  UNL1        0.1022
     23 N         142.9765  137.8099  158.5494 N.ar    1  UNL1       -0.2224
     24 C         141.6810  137.9162  157.8008 C.ar    1  UNL1        0.1989
     25 N         140.4439  138.3878  158.5059 N.ar    1  UNL1       -0.2224
     26 C         140.5023  138.7532  159.9596 C.ar    1  UNL1        0.1022
     27 C         141.9962  141.9117  168.3927 C.3     1  UNL1        0.0438
     28 C         140.4399  143.6093  169.5953 C.3     1  UNL1        0.0001
     29 C         140.7317  142.2092  169.1427 C.3     1  UNL1        0.0036
     30 C         139.7590  141.1068  169.4401 C.3     1  UNL1        0.0001
@<TRIPOS>BOND
     1    28    29    1
     2    29    30    1
     3    29    27    1
     4    27     1    1
     5     1     2    1
     6     2     3    1
     7     3     4   ar
     8     4     5   ar
     9     5     6   ar
    10     6    21    1
    11    21    22   ar
    12    22    23   ar
    13    23    24   ar
    14    24    25   ar
    15    25    26   ar
    16     6     7   ar
    17     7     8   ar
    18     8     9    1
    19     9    10    1
    20    10    11    1
    21    11    12    1
    22    12    13    1
    23    12    14    2
    24     9    15    1
    25    15    16    1
    26    16    17    1
    27    17    18    1
    28    15     1    1
    29     8     3   ar
    30    14     9    1
    31    18    15    1
    32    26    21   ar
    33    13    19    1
    34    13    20    1
