@<TRIPOS>MOLECULE
*****
 22 23 0 0 0
SMALL
GASTEIGER

@<TRIPOS>ATOM
      1 C         142.4025  141.5136  169.1728 C.ar    1  UNL1        0.1414
      2 N         141.4906  141.3610  167.9916 N.ar    1  UNL1       -0.2288
      3 C         141.5969  139.9466  167.5036 C.ar    1  UNL1        0.0996
      4 C         142.5745  139.2250  168.3831 C.ar    1  UNL1        0.0927
      5 N         143.0724  140.1934  169.4147 N.ar    1  UNL1       -0.3378
      6 H         143.7244  139.9970  170.1257 H       1  UNL1        0.1672
      7 C         140.8557  139.3573  166.3402 C.ar    1  UNL1        0.0194
      8 C         139.4105  139.6951  166.1228 C.ar    1  UNL1        0.0047
      9 C         138.6693  139.1059  164.9595 C.ar    1  UNL1        0.0372
     10 C         139.3734  138.1787  164.0135 C.ar    1  UNL1        0.1468
     11 C         140.8185  137.8409  164.2309 C.ar    1  UNL1        0.0372
     12 C         141.5597  138.4302  165.3942 C.ar    1  UNL1        0.0047
     13 O         138.6321  137.5894  162.8501 O.3     1  UNL1       -0.4045
     14 C         138.6027  138.3119  161.5359 C.3     1  UNL1        0.5753
     15 F         138.5732  139.0344  160.2217 F       1  UNL1       -0.1328
     16 F         137.3095  138.9653  161.9241 F       1  UNL1       -0.1328
     17 F         139.8958  137.6584  161.1477 F       1  UNL1       -0.1328
     18 C         144.0866  142.5122  169.9892 C.3     1  UNL1        0.0371
     19 C         142.6084  142.7663  169.9717 C.3     1  UNL1        0.1381
     20 C         141.1302  143.0204  169.9542 C.3     1  UNL1        0.0371
     21 O         142.8143  144.0190  170.7707 O.3     1  UNL1       -0.3797
     22 H         143.7599  144.1341  170.9536 H       1  UNL1        0.2108
@<TRIPOS>BOND
     1    18    19    1
     2    19    20    1
     3    19    21    1
     4    19     1    1
     5     1     2   ar
     6     2     3   ar
     7     3     7    1
     8     7     8   ar
     9     8     9   ar
    10     9    10   ar
    11    10    13    1
    12    13    14    1
    13    14    15    1
    14    14    16    1
    15    14    17    1
    16    10    11   ar
    17    11    12   ar
    18     3     4   ar
    19     4     5   ar
    20     5     1   ar
    21    12     7   ar
    22    21    22    1
    23     5     6    1
@<TRIPOS>MOLECULE
*****
 22 23 0 0 0
SMALL
GASTEIGER

@<TRIPOS>ATOM
      1 C         140.8366  140.7357  169.1257 C.ar    1  UNL1        0.1414
      2 N         140.7686  141.9162  168.2028 N.ar    1  UNL1       -0.2288
      3 C         139.9899  141.5097  166.9869 C.ar    1  UNL1        0.0996
      4 C         139.5767  140.0779  167.1583 C.ar    1  UNL1        0.0927
      5 N         140.1000  139.5996  168.4802 N.ar    1  UNL1       -0.3378
      6 H         139.9809  138.6982  168.8577 H       1  UNL1        0.1672
      7 C         139.6791  142.3819  165.8067 C.ar    1  UNL1        0.0194
      8 C         138.4593  142.1131  164.9761 C.ar    1  UNL1        0.0047
      9 C         138.1485  142.9853  163.7960 C.ar    1  UNL1        0.0372
     10 C         139.0575  144.1262  163.4465 C.ar    1  UNL1        0.1468
     11 C         140.2772  144.3949  164.2771 C.ar    1  UNL1        0.0372
     12 C         140.5880  143.5228  165.4572 C.ar    1  UNL1        0.0047
     13 O         138.7466  144.9983  162.2663 O.3     1  UNL1       -0.4045
     14 C         139.8387  145.3924  161.3166 C.3     1  UNL1        0.5753
     15 F         140.9309  145.7866  160.3669 F       1  UNL1       -0.1328
     16 F         139.6226  146.8349  161.6667 F       1  UNL1       -0.1328
     17 F         140.0548  143.9500  160.9666 F       1  UNL1       -0.1328
     18 C         142.3218  139.5100  170.0155 C.3     1  UNL1        0.0371
     19 C         141.5210  140.6979  170.4599 C.3     1  UNL1        0.1381
     20 C         140.7202  141.8858  170.9044 C.3     1  UNL1        0.0371
     21 O         142.2055  140.6601  171.7941 O.3     1  UNL1       -0.3797
     22 H         142.8413  139.9277  171.8107 H       1  UNL1        0.2108
@<TRIPOS>BOND
     1    18    19    1
     2    19    20    1
     3    19    21    1
     4    19     1    1
     5     1     2   ar
     6     2     3   ar
     7     3     7    1
     8     7     8   ar
     9     8     9   ar
    10     9    10   ar
    11    10    13    1
    12    13    14    1
    13    14    15    1
    14    14    16    1
    15    14    17    1
    16    10    11   ar
    17    11    12   ar
    18     3     4   ar
    19     4     5   ar
    20     5     1   ar
    21    12     7   ar
    22    21    22    1
    23     5     6    1
@<TRIPOS>MOLECULE
*****
 22 23 0 0 0
SMALL
GASTEIGER

@<TRIPOS>ATOM
      1 C         140.0500  144.4443  162.7653 C.ar    1  UNL1        0.1414
      2 N         140.6956  143.5613  163.7917 N.ar    1  UNL1       -0.2288
      3 C         139.6468  143.1656  164.7884 C.ar    1  UNL1        0.0996
      4 C         138.3530  143.8042  164.3781 C.ar    1  UNL1        0.0927
      5 N         138.6022  144.5945  163.1277 N.ar    1  UNL1       -0.3378
      6 H         137.9330  145.1195  162.6320 H       1  UNL1        0.1672
      7 C         139.8552  142.2859  165.9854 C.ar    1  UNL1        0.0194
      8 C         139.3507  140.8733  165.9749 C.ar    1  UNL1        0.0047
      9 C         139.5591  139.9937  167.1719 C.ar    1  UNL1        0.0372
     10 C         140.2721  140.5265  168.3792 C.ar    1  UNL1        0.1468
     11 C         140.7766  141.9391  168.3897 C.ar    1  UNL1        0.0372
     12 C         140.5681  142.8187  167.1928 C.ar    1  UNL1        0.0047
     13 O         140.4805  139.6468  169.5762 O.3     1  UNL1       -0.4045
     14 C         141.7914  139.6698  170.3048 C.3     1  UNL1        0.5753
     15 F         143.1025  139.6928  171.0333 F       1  UNL1       -0.1328
     16 F         142.3934  138.7902  169.2494 F       1  UNL1       -0.1328
     17 F         141.1894  140.5493  171.3602 F       1  UNL1       -0.1328
     18 C         141.6902  143.9147  161.5287 C.3     1  UNL1        0.0371
     19 C         140.7324  145.0678  161.5840 C.3     1  UNL1        0.1381
     20 C         139.7747  146.2209  161.6392 C.3     1  UNL1        0.0371
     21 O         141.4148  145.6912  160.4026 O.3     1  UNL1       -0.3797
     22 H         142.1459  145.1226  160.1143 H       1  UNL1        0.2108
@<TRIPOS>BOND
     1    18    19    1
     2    19    20    1
     3    19    21    1
     4    19     1    1
     5     1     2   ar
     6     2     3   ar
     7     3     7    1
     8     7     8   ar
     9     8     9   ar
    10     9    10   ar
    11    10    13    1
    12    13    14    1
    13    14    15    1
    14    14    16    1
    15    14    17    1
    16    10    11   ar
    17    11    12   ar
    18     3     4   ar
    19     4     5   ar
    20     5     1   ar
    21    12     7   ar
    22    21    22    1
    23     5     6    1
@<TRIPOS>MOLECULE
*****
 22 23 0 0 0
SMALL
GASTEIGER

@<TRIPOS>ATOM
      1 C         138.5894  139.0722  163.1542 C.ar    1  UNL1        0.1414
      2 N         138.9858  139.8998  164.3408 N.ar    1  UNL1       -0.2288
      3 C         139.8865  139.0686  165.2056 C.ar    1  UNL1        0.0996
      4 C         140.0467  137.7273  164.5535 C.ar    1  UNL1        0.0927
      5 N         139.2451  137.7295  163.2857 N.ar    1  UNL1       -0.3378
      6 H         139.1636  136.9811  162.6513 H       1  UNL1        0.1672
      7 C         140.5164  139.5025  166.4960 C.ar    1  UNL1        0.0194
      8 C         142.0056  139.4370  166.6629 C.ar    1  UNL1        0.0047
      9 C         142.6354  139.8710  167.9533 C.ar    1  UNL1        0.0372
     10 C         141.7760  140.3704  169.0766 C.ar    1  UNL1        0.1468
     11 C         140.2868  140.4359  168.9097 C.ar    1  UNL1        0.0372
     12 C         139.6570  140.0020  167.6194 C.ar    1  UNL1        0.0047
     13 O         142.4059  140.8044  170.3670 O.3     1  UNL1       -0.4045
     14 C         142.7836  142.2416  170.5712 C.3     1  UNL1        0.5753
     15 F         143.1613  143.6789  170.7753 F       1  UNL1       -0.1328
     16 F         141.4287  142.5149  171.1539 F       1  UNL1       -0.1328
     17 F         144.1384  141.9683  169.9885 F       1  UNL1       -0.1328
     18 C         137.7123  140.9122  162.5666 C.3     1  UNL1        0.0371
     19 C         137.6944  139.5104  162.0331 C.3     1  UNL1        0.1381
     20 C         137.6765  138.1086  161.4996 C.3     1  UNL1        0.0371
     21 O         136.7994  139.9485  160.9119 O.3     1  UNL1       -0.3797
     22 H         136.6174  140.8976  160.9955 H       1  UNL1        0.2108
@<TRIPOS>BOND
     1    18    19    1
     2    19    20    1
     3    19    21    1
     4    19     1    1
     5     1     2   ar
     6     2     3   ar
     7     3     7    1
     8     7     8   ar
     9     8     9   ar
    10     9    10   ar
    11    10    13    1
    12    13    14    1
    13    14    15    1
    14    14    16    1
    15    14    17    1
    16    10    11   ar
    17    11    12   ar
    18     3     4   ar
    19     4     5   ar
    20     5     1   ar
    21    12     7   ar
    22    21    22    1
    23     5     6    1
@<TRIPOS>MOLECULE
*****
 22 23 0 0 0
SMALL
GASTEIGER

@<TRIPOS>ATOM
      1 C         141.4154  144.7758  162.0761 C.ar    1  UNL1        0.1414
      2 N         140.8938  144.0147  163.2587 N.ar    1  UNL1       -0.2288
      3 C         142.0229  143.8370  164.2302 C.ar    1  UNL1        0.0996
      4 C         143.2422  144.4883  163.6480 C.ar    1  UNL1        0.0927
      5 N         142.8668  145.0685  162.3167 N.ar    1  UNL1       -0.3378
      6 H         143.4675  145.5559  161.7077 H       1  UNL1        0.1672
      7 C         141.9460  143.1318  165.5519 C.ar    1  UNL1        0.0194
      8 C         140.6207  142.9553  166.2318 C.ar    1  UNL1        0.0047
      9 C         140.5439  142.2501  167.5535 C.ar    1  UNL1        0.0372
     10 C         141.7923  141.7214  168.1952 C.ar    1  UNL1        0.1468
     11 C         143.1177  141.8979  167.5152 C.ar    1  UNL1        0.0372
     12 C         143.1945  142.6031  166.1936 C.ar    1  UNL1        0.0047
     13 O         141.7155  141.0162  169.5169 O.3     1  UNL1       -0.4045
     14 C         142.2455  139.6197  169.6537 C.3     1  UNL1        0.5753
     15 F         142.7755  138.2231  169.7907 F       1  UNL1       -0.1328
     16 F         143.0616  140.0455  170.8380 F       1  UNL1       -0.1328
     17 F         141.4294  139.1939  168.4695 F       1  UNL1       -0.1328
     18 C         139.8110  146.1133  161.7060 C.3     1  UNL1        0.0371
     19 C         140.6245  145.1743  160.8654 C.3     1  UNL1        0.1381
     20 C         141.4379  144.2353  160.0249 C.3     1  UNL1        0.0371
     21 O         139.8335  145.5728  159.6548 O.3     1  UNL1       -0.3797
     22 H         139.1671  146.2312  159.9063 H       1  UNL1        0.2108
@<TRIPOS>BOND
     1    18    19    1
     2    19    20    1
     3    19    21    1
     4    19     1    1
     5     1     2   ar
     6     2     3   ar
     7     3     7    1
     8     7     8   ar
     9     8     9   ar
    10     9    10   ar
    11    10    13    1
    12    13    14    1
    13    14    15    1
    14    14    16    1
    15    14    17    1
    16    10    11   ar
    17    11    12   ar
    18     3     4   ar
    19     4     5   ar
    20     5     1   ar
    21    12     7   ar
    22    21    22    1
    23     5     6    1
@<TRIPOS>MOLECULE
*****
 22 23 0 0 0
SMALL
GASTEIGER

@<TRIPOS>ATOM
      1 C         141.0249  141.8502  169.2182 C.ar    1  UNL1        0.1414
      2 N         141.1819  141.4213  167.7895 N.ar    1  UNL1       -0.2288
      3 C         140.1346  140.3878  167.4979 C.ar    1  UNL1        0.0996
      4 C         139.3303  140.1778  168.7465 C.ar    1  UNL1        0.0927
      5 N         139.8805  141.0816  169.8097 N.ar    1  UNL1       -0.3378
      6 H         139.5488  141.1572  170.7336 H       1  UNL1        0.1672
      7 C         139.9280  139.6871  166.1878 C.ar    1  UNL1        0.0194
      8 C         138.9474  138.5564  166.0884 C.ar    1  UNL1        0.0047
      9 C         138.7408  137.8558  164.7783 C.ar    1  UNL1        0.0372
     10 C         139.5147  138.2860  163.5675 C.ar    1  UNL1        0.1468
     11 C         140.4953  139.4167  163.6669 C.ar    1  UNL1        0.0372
     12 C         140.7019  140.1172  164.9770 C.ar    1  UNL1        0.0047
     13 O         139.3081  137.5853  162.2574 O.3     1  UNL1       -0.4045
     14 C         138.8820  138.3650  161.0489 C.3     1  UNL1        0.5753
     15 F         138.4559  139.1448  159.8404 F       1  UNL1       -0.1328
     16 F         140.2645  138.2399  160.4807 F       1  UNL1       -0.1328
     17 F         137.4994  138.4902  161.6171 F       1  UNL1       -0.1328
     18 C         143.0258  141.9193  169.9191 C.3     1  UNL1        0.0371
     19 C         141.8647  142.8688  169.9304 C.3     1  UNL1        0.1381
     20 C         140.7035  143.8182  169.9418 C.3     1  UNL1        0.0371
     21 O         142.7045  143.8873  170.6426 O.3     1  UNL1       -0.3797
     22 H         143.5935  143.5280  170.7893 H       1  UNL1        0.2108
@<TRIPOS>BOND
     1    18    19    1
     2    19    20    1
     3    19    21    1
     4    19     1    1
     5     1     2   ar
     6     2     3   ar
     7     3     7    1
     8     7     8   ar
     9     8     9   ar
    10     9    10   ar
    11    10    13    1
    12    13    14    1
    13    14    15    1
    14    14    16    1
    15    14    17    1
    16    10    11   ar
    17    11    12   ar
    18     3     4   ar
    19     4     5   ar
    20     5     1   ar
    21    12     7   ar
    22    21    22    1
    23     5     6    1
@<TRIPOS>MOLECULE
*****
 22 23 0 0 0
SMALL
GASTEIGER

@<TRIPOS>ATOM
      1 C         141.2429  140.0752  168.8354 C.ar    1  UNL1        0.1414
      2 N         141.1681  139.9254  167.3448 N.ar    1  UNL1       -0.2288
      3 C         139.7319  139.7047  166.9726 C.ar    1  UNL1        0.0996
      4 C         138.9190  139.7182  168.2331 C.ar    1  UNL1        0.0927
      5 N         139.8528  139.9472  169.3844 N.ar    1  UNL1       -0.3378
      6 H         139.5981  140.0035  170.3337 H       1  UNL1        0.1672
      7 C         139.2017  139.5055  165.5836 C.ar    1  UNL1        0.0194
      8 C         138.4618  140.6150  164.8969 C.ar    1  UNL1        0.0047
      9 C         137.9316  140.4158  163.5080 C.ar    1  UNL1        0.0372
     10 C         138.1413  139.1071  162.8057 C.ar    1  UNL1        0.1468
     11 C         138.8812  137.9976  163.4923 C.ar    1  UNL1        0.0372
     12 C         139.4113  138.1968  164.8813 C.ar    1  UNL1        0.0047
     13 O         137.6111  138.9079  161.4167 O.3     1  UNL1       -0.4045
     14 C         138.4304  139.3304  160.2334 C.3     1  UNL1        0.5753
     15 F         139.2498  139.7529  159.0500 F       1  UNL1       -0.1328
     16 F         137.7140  140.6479  160.2078 F       1  UNL1       -0.1328
     17 F         139.1468  138.0128  160.2590 F       1  UNL1       -0.1328
     18 C         142.5053  141.7431  169.1884 C.3     1  UNL1        0.0371
     19 C         142.4889  140.3116  169.6364 C.3     1  UNL1        0.1381
     20 C         142.4725  138.8802  170.0844 C.3     1  UNL1        0.0371
     21 O         143.7349  140.5480  170.4374 O.3     1  UNL1       -0.3797
     22 H         144.0134  141.4717  170.3369 H       1  UNL1        0.2108
@<TRIPOS>BOND
     1    18    19    1
     2    19    20    1
     3    19    21    1
     4    19     1    1
     5     1     2   ar
     6     2     3   ar
     7     3     7    1
     8     7     8   ar
     9     8     9   ar
    10     9    10   ar
    11    10    13    1
    12    13    14    1
    13    14    15    1
    14    14    16    1
    15    14    17    1
    16    10    11   ar
    17    11    12   ar
    18     3     4   ar
    19     4     5   ar
    20     5     1   ar
    21    12     7   ar
    22    21    22    1
    23     5     6    1
@<TRIPOS>MOLECULE
*****
 22 23 0 0 0
SMALL
GASTEIGER

@<TRIPOS>ATOM
      1 C         143.3577  138.7936  162.6285 C.ar    1  UNL1        0.1414
      2 N         142.4683  139.2188  163.7590 N.ar    1  UNL1       -0.2288
      3 C         143.3394  139.7401  164.8633 C.ar    1  UNL1        0.0996
      4 C         144.7672  139.6371  164.4153 C.ar    1  UNL1        0.0927
      5 N         144.7786  139.0521  163.0342 N.ar    1  UNL1       -0.3378
      6 H         145.5782  138.8698  162.4895 H       1  UNL1        0.1672
      7 C         142.8657  140.2713  166.1838 C.ar    1  UNL1        0.0194
      8 C         142.7820  139.3600  167.3723 C.ar    1  UNL1        0.0047
      9 C         142.3084  139.8912  168.6927 C.ar    1  UNL1        0.0372
     10 C         141.9185  141.3336  168.8246 C.ar    1  UNL1        0.1468
     11 C         142.0022  142.2449  167.6361 C.ar    1  UNL1        0.0372
     12 C         142.4759  141.7137  166.3157 C.ar    1  UNL1        0.0047
     13 O         141.4448  141.8648  170.1451 O.3     1  UNL1       -0.4045
     14 C         140.7970  143.2155  170.2214 C.3     1  UNL1        0.5753
     15 F         140.1492  144.5663  170.2977 F       1  UNL1       -0.1328
     16 F         142.1484  143.8576  170.3285 F       1  UNL1       -0.1328
     17 F         139.4457  142.5734  170.1144 F       1  UNL1       -0.1328
     18 C         144.1640  138.7019  160.6686 C.3     1  UNL1        0.0371
     19 C         142.9058  138.2119  161.3219 C.3     1  UNL1        0.1381
     20 C         141.6476  137.7219  161.9752 C.3     1  UNL1        0.0371
     21 O         142.4538  137.6303  160.0152 O.3     1  UNL1       -0.3797
     22 H         143.1235  137.8037  159.3352 H       1  UNL1        0.2108
@<TRIPOS>BOND
     1    18    19    1
     2    19    20    1
     3    19    21    1
     4    19     1    1
     5     1     2   ar
     6     2     3   ar
     7     3     7    1
     8     7     8   ar
     9     8     9   ar
    10     9    10   ar
    11    10    13    1
    12    13    14    1
    13    14    15    1
    14    14    16    1
    15    14    17    1
    16    10    11   ar
    17    11    12   ar
    18     3     4   ar
    19     4     5   ar
    20     5     1   ar
    21    12     7   ar
    22    21    22    1
    23     5     6    1
@<TRIPOS>MOLECULE
*****
 22 23 0 0 0
SMALL
GASTEIGER

@<TRIPOS>ATOM
      1 C         141.9872  144.3459  161.5351 C.ar    1  UNL1        0.1414
      2 N         141.3225  143.6016  162.6549 N.ar    1  UNL1       -0.2288
      3 C         142.1805  143.7406  163.8775 C.ar    1  UNL1        0.0996
      4 C         143.3755  144.5707  163.5132 C.ar    1  UNL1        0.0927
      5 N         143.2561  144.9449  162.0655 N.ar    1  UNL1       -0.3378
      6 H         143.8978  145.4882  161.5535 H       1  UNL1        0.1672
      7 C         141.8937  143.1525  165.2273 C.ar    1  UNL1        0.0194
      8 C         140.5073  143.2205  165.7959 C.ar    1  UNL1        0.0047
      9 C         140.2206  142.6324  167.1457 C.ar    1  UNL1        0.0372
     10 C         141.3203  141.9764  167.9269 C.ar    1  UNL1        0.1468
     11 C         142.7067  141.9084  167.3584 C.ar    1  UNL1        0.0372
     12 C         142.9934  142.4965  166.0086 C.ar    1  UNL1        0.0047
     13 O         141.0336  141.3884  169.2768 O.3     1  UNL1       -0.4045
     14 C         139.6518  140.9073  169.6071 C.3     1  UNL1        0.5753
     15 F         138.2699  140.4263  169.9375 F       1  UNL1       -0.1328
     16 F         139.4119  142.1496  170.4128 F       1  UNL1       -0.1328
     17 F         139.8916  139.6650  168.8015 F       1  UNL1       -0.1328
     18 C         142.5112  143.4920  159.6653 C.3     1  UNL1        0.0371
     19 C         141.4734  144.4696  160.1313 C.3     1  UNL1        0.1381
     20 C         140.4356  145.4472  160.5973 C.3     1  UNL1        0.0371
     21 O         140.9596  144.5933  158.7275 O.3     1  UNL1       -0.3797
     22 H         141.4816  144.0239  158.1408 H       1  UNL1        0.2108
@<TRIPOS>BOND
     1    18    19    1
     2    19    20    1
     3    19    21    1
     4    19     1    1
     5     1     2   ar
     6     2     3   ar
     7     3     7    1
     8     7     8   ar
     9     8     9   ar
    10     9    10   ar
    11    10    13    1
    12    13    14    1
    13    14    15    1
    14    14    16    1
    15    14    17    1
    16    10    11   ar
    17    11    12   ar
    18     3     4   ar
    19     4     5   ar
    20     5     1   ar
    21    12     7   ar
    22    21    22    1
    23     5     6    1
