@<TRIPOS>MOLECULE
*****
 27 30 0 0 0
SMALL
GASTEIGER

@<TRIPOS>ATOM
      1 C         139.7464  139.3996  165.0086 C.ar    1  UNL1        0.1014
      2 C         139.2109  138.0462  164.6464 C.ar    1  UNL1        0.0240
      3 C         138.5688  137.8271  163.3086 C.ar    1  UNL1        0.0404
      4 C         138.4621  138.9616  162.3331 C.ar    1  UNL1        0.1639
      5 N         137.8854  139.0460  160.9509 N.ar    1  UNL1       -0.2234
      6 C         138.0646  140.4516  160.4590 C.ar    1  UNL1        0.1197
      7 C         138.7519  141.2360  161.5371 C.ar    1  UNL1        0.1037
      8 N         138.9976  140.3151  162.6954 N.ar    1  UNL1       -0.2107
      9 N         139.6397  140.5341  164.0331 N.ar    1  UNL1       -0.1638
     10 C         141.6730  140.0568  169.0220 C.ar    1  UNL1        0.1807
     11 C         140.1870  140.1961  168.8715 C.ar    1  UNL1        0.0520
     12 C         139.5448  139.9770  167.5337 C.ar    1  UNL1        0.0060
     13 C         140.3886  139.6187  166.3464 C.ar    1  UNL1        0.0196
     14 C         141.8745  139.4795  166.4969 C.ar    1  UNL1        0.0060
     15 C         142.5167  139.6985  167.8346 C.ar    1  UNL1        0.0520
     16 C         141.7683  141.3151  171.2930 C.3     1  UNL1        0.3254
     17 S         142.3151  140.2759  170.3597 S.O     1  UNL1        0.0581
     18 O         143.5042  139.4558  170.7642 O.co2   1  UNL1       -0.6774
     19 C         139.1276  142.6866  161.4690 C.ar    1  UNL1        0.0236
     20 C         138.7646  143.6090  162.5947 C.ar    1  UNL1        0.0018
     21 C         139.1403  145.0596  162.5266 C.ar    1  UNL1        0.0045
     22 C         139.8790  145.5878  161.3327 C.ar    1  UNL1        0.0519
     23 C         140.2419  144.6654  160.2070 C.ar    1  UNL1        0.1808
     24 C         139.8662  143.2148  160.2751 C.ar    1  UNL1        0.0535
     25 S         140.9806  145.1935  159.0130 S.O     1  UNL1        0.0581
     26 C         140.2513  145.9896  157.9716 C.3     1  UNL1        0.3254
     27 O         142.4486  144.9256  158.8604 O.co2   1  UNL1       -0.6774
@<TRIPOS>UNITY_ATOM_ATTR
17 1
charge 1
18 1
charge -1
25 1
charge 1
27 1
charge -1
@<TRIPOS>BOND
     1    16    17    1
     2    17    18    2
     3    17    10    1
     4    10    11   ar
     5    11    12   ar
     6    12    13   ar
     7    13     1    1
     8     1     2   ar
     9     2     3   ar
    10     3     4   ar
    11     4     5   ar
    12     5     6   ar
    13     6     7   ar
    14     7    19    1
    15    19    20   ar
    16    20    21   ar
    17    21    22   ar
    18    22    23   ar
    19    23    25    1
    20    25    26    1
    21    25    27    2
    22    23    24   ar
    23     7     8   ar
    24     8     9   ar
    25    13    14   ar
    26    14    15   ar
    27    15    10   ar
    28     9     1   ar
    29     8     4   ar
    30    24    19   ar
@<TRIPOS>MOLECULE
*****
 27 30 0 0 0
SMALL
GASTEIGER

@<TRIPOS>ATOM
      1 C         139.5858  139.7475  165.0486 C.ar    1  UNL1        0.1014
      2 C         139.0687  138.3403  164.9992 C.ar    1  UNL1        0.0240
      3 C         138.8543  137.6661  163.6766 C.ar    1  UNL1        0.0404
      4 C         139.1569  138.3990  162.4033 C.ar    1  UNL1        0.1639
      5 N         139.0455  137.9964  160.9626 N.ar    1  UNL1       -0.2234
      6 C         139.4938  139.1547  160.1217 C.ar    1  UNL1        0.1197
      7 C         139.8822  140.2732  161.0426 C.ar    1  UNL1        0.1037
      8 N         139.6740  139.8062  162.4527 N.ar    1  UNL1       -0.2107
      9 N         139.8884  140.4804  163.7753 N.ar    1  UNL1       -0.1638
     10 C         140.2292  141.7703  169.0166 C.ar    1  UNL1        0.1807
     11 C         140.6502  142.4537  167.7494 C.ar    1  UNL1        0.0520
     12 C         140.4357  141.7794  166.4267 C.ar    1  UNL1        0.0060
     13 C         139.8003  140.4218  166.3713 C.ar    1  UNL1        0.0196
     14 C         139.3793  139.7384  167.6385 C.ar    1  UNL1        0.0060
     15 C         139.5937  140.4127  168.9611 C.ar    1  UNL1        0.0520
     16 C         141.4823  141.9228  171.2873 C.3     1  UNL1        0.3254
     17 S         140.4436  142.4446  170.3392 S.O     1  UNL1        0.0581
     18 O         139.6194  143.6406  170.7137 O.co2   1  UNL1       -0.6774
     19 C         140.3897  141.6220  160.6264 C.ar    1  UNL1        0.0236
     20 C         141.2282  141.7592  159.3902 C.ar    1  UNL1        0.0018
     21 C         141.7357  143.1079  158.9741 C.ar    1  UNL1        0.0045
     22 C         141.4048  144.3196  159.7940 C.ar    1  UNL1        0.0519
     23 C         140.5663  144.1824  161.0302 C.ar    1  UNL1        0.1808
     24 C         140.0588  142.8337  161.4463 C.ar    1  UNL1        0.0535
     25 S         140.2353  145.3941  161.8502 S.O     1  UNL1        0.0581
     26 C         140.9099  145.6123  163.1721 C.3     1  UNL1        0.3254
     27 O         139.2298  146.3876  161.3483 O.co2   1  UNL1       -0.6774
@<TRIPOS>UNITY_ATOM_ATTR
17 1
charge 1
18 1
charge -1
25 1
charge 1
27 1
charge -1
@<TRIPOS>BOND
     1    16    17    1
     2    17    18    2
     3    17    10    1
     4    10    11   ar
     5    11    12   ar
     6    12    13   ar
     7    13     1    1
     8     1     2   ar
     9     2     3   ar
    10     3     4   ar
    11     4     5   ar
    12     5     6   ar
    13     6     7   ar
    14     7    19    1
    15    19    20   ar
    16    20    21   ar
    17    21    22   ar
    18    22    23   ar
    19    23    25    1
    20    25    26    1
    21    25    27    2
    22    23    24   ar
    23     7     8   ar
    24     8     9   ar
    25    13    14   ar
    26    14    15   ar
    27    15    10   ar
    28     9     1   ar
    29     8     4   ar
    30    24    19   ar
@<TRIPOS>MOLECULE
*****
 27 30 0 0 0
SMALL
GASTEIGER

@<TRIPOS>ATOM
      1 C         139.6641  139.7499  165.3099 C.ar    1  UNL1        0.1014
      2 C         138.8932  138.4632  165.3238 C.ar    1  UNL1        0.0240
      3 C         138.7165  137.6811  164.0561 C.ar    1  UNL1        0.0404
      4 C         139.3108  138.1855  162.7746 C.ar    1  UNL1        0.1639
      5 N         139.3019  137.6354  161.3791 N.ar    1  UNL1       -0.2234
      6 C         140.0672  138.5821  160.5028 C.ar    1  UNL1        0.1197
      7 C         140.5492  139.7173  161.3566 C.ar    1  UNL1        0.1037
      8 N         140.0817  139.4722  162.7607 N.ar    1  UNL1       -0.2107
      9 N         140.2583  140.2543  164.0283 N.ar    1  UNL1       -0.1638
     10 C         140.1940  142.0965  169.1129 C.ar    1  UNL1        0.1807
     11 C         140.5570  142.7130  167.7945 C.ar    1  UNL1        0.0520
     12 C         140.3804  141.9307  166.5268 C.ar    1  UNL1        0.0060
     13 C         139.8407  140.5321  166.5776 C.ar    1  UNL1        0.0196
     14 C         139.4778  139.9156  167.8960 C.ar    1  UNL1        0.0060
     15 C         139.6544  140.6978  169.1636 C.ar    1  UNL1        0.0520
     16 C         140.5006  144.3721  170.3284 C.3     1  UNL1        0.3254
     17 S         140.3707  142.8786  170.3806 S.O     1  UNL1        0.0581
     18 O         140.4174  142.1674  171.7004 O.co2   1  UNL1       -0.6774
     19 C         141.3569  140.8914  160.8886 C.ar    1  UNL1        0.0236
     20 C         141.0811  141.5049  159.5479 C.ar    1  UNL1        0.0018
     21 C         141.8887  142.6790  159.0799 C.ar    1  UNL1        0.0045
     22 C         142.9722  143.2398  159.9526 C.ar    1  UNL1        0.0519
     23 C         143.2480  142.6263  161.2933 C.ar    1  UNL1        0.1808
     24 C         142.4403  141.4522  161.7613 C.ar    1  UNL1        0.0535
     25 S         144.3315  143.1871  162.1661 S.O     1  UNL1        0.0581
     26 C         145.3416  142.2704  162.7901 C.3     1  UNL1        0.3254
     27 O         144.4048  144.6645  162.4150 O.co2   1  UNL1       -0.6774
@<TRIPOS>UNITY_ATOM_ATTR
17 1
charge 1
18 1
charge -1
25 1
charge 1
27 1
charge -1
@<TRIPOS>BOND
     1    16    17    1
     2    17    18    2
     3    17    10    1
     4    10    11   ar
     5    11    12   ar
     6    12    13   ar
     7    13     1    1
     8     1     2   ar
     9     2     3   ar
    10     3     4   ar
    11     4     5   ar
    12     5     6   ar
    13     6     7   ar
    14     7    19    1
    15    19    20   ar
    16    20    21   ar
    17    21    22   ar
    18    22    23   ar
    19    23    25    1
    20    25    26    1
    21    25    27    2
    22    23    24   ar
    23     7     8   ar
    24     8     9   ar
    25    13    14   ar
    26    14    15   ar
    27    15    10   ar
    28     9     1   ar
    29     8     4   ar
    30    24    19   ar
@<TRIPOS>MOLECULE
*****
 27 30 0 0 0
SMALL
GASTEIGER

@<TRIPOS>ATOM
      1 C         142.7374  139.8856  165.3383 C.ar    1  UNL1        0.1014
      2 C         144.2028  139.5933  165.2072 C.ar    1  UNL1        0.0240
      3 C         144.7610  139.1325  163.8934 C.ar    1  UNL1        0.0404
      4 C         143.8538  138.9640  162.7107 C.ar    1  UNL1        0.1639
      5 N         144.1151  138.5280  161.2994 N.ar    1  UNL1       -0.2234
      6 C         142.8112  138.5509  160.5583 C.ar    1  UNL1        0.1197
      7 C         141.7441  139.0009  161.5116 C.ar    1  UNL1        0.1037
      8 N         142.3885  139.2562  162.8418 N.ar    1  UNL1       -0.2107
      9 N         141.8302  139.7170  164.1556 N.ar    1  UNL1       -0.1638
     10 C         141.0625  141.2681  169.2796 C.ar    1  UNL1        0.1807
     11 C         141.9153  140.0356  169.2180 C.ar    1  UNL1        0.0520
     12 C         142.4736  139.5747  167.9042 C.ar    1  UNL1        0.0060
     13 C         142.1791  140.3464  166.6521 C.ar    1  UNL1        0.0196
     14 C         141.3264  141.5789  166.7137 C.ar    1  UNL1        0.0060
     15 C         140.7681  142.0397  168.0274 C.ar    1  UNL1        0.0520
     16 C         139.7771  143.0379  170.6814 C.3     1  UNL1        0.3254
     17 S         140.5042  141.7289  170.5933 S.O     1  UNL1        0.0581
     18 O         140.6731  140.8808  171.8190 O.co2   1  UNL1       -0.6774
     19 C         140.2882  139.1666  161.1909 C.ar    1  UNL1        0.0236
     20 C         139.2508  138.5118  162.0542 C.ar    1  UNL1        0.0018
     21 C         137.7949  138.6775  161.7335 C.ar    1  UNL1        0.0045
     22 C         137.3762  139.4980  160.5496 C.ar    1  UNL1        0.0519
     23 C         138.4136  140.1527  159.6864 C.ar    1  UNL1        0.1808
     24 C         139.8695  139.9871  160.0071 C.ar    1  UNL1        0.0535
     25 S         137.9950  140.9733  158.5024 S.O     1  UNL1        0.0581
     26 C         138.6130  142.3196  158.2667 C.3     1  UNL1        0.3254
     27 O         136.9584  140.4474  157.5543 O.co2   1  UNL1       -0.6774
@<TRIPOS>UNITY_ATOM_ATTR
17 1
charge 1
18 1
charge -1
25 1
charge 1
27 1
charge -1
@<TRIPOS>BOND
     1    16    17    1
     2    17    18    2
     3    17    10    1
     4    10    11   ar
     5    11    12   ar
     6    12    13   ar
     7    13     1    1
     8     1     2   ar
     9     2     3   ar
    10     3     4   ar
    11     4     5   ar
    12     5     6   ar
    13     6     7   ar
    14     7    19    1
    15    19    20   ar
    16    20    21   ar
    17    21    22   ar
    18    22    23   ar
    19    23    25    1
    20    25    26    1
    21    25    27    2
    22    23    24   ar
    23     7     8   ar
    24     8     9   ar
    25    13    14   ar
    26    14    15   ar
    27    15    10   ar
    28     9     1   ar
    29     8     4   ar
    30    24    19   ar
@<TRIPOS>MOLECULE
*****
 27 30 0 0 0
SMALL
GASTEIGER

@<TRIPOS>ATOM
      1 C         142.8329  140.1065  165.0976 C.ar    1  UNL1        0.1014
      2 C         143.8053  139.0056  164.7937 C.ar    1  UNL1        0.0240
      3 C         144.3849  138.8760  163.4163 C.ar    1  UNL1        0.0404
      4 C         143.9922  139.8474  162.3429 C.ar    1  UNL1        0.1639
      5 N         144.3955  139.9694  160.9032 N.ar    1  UNL1       -0.2234
      6 C         143.6723  141.1458  160.3175 C.ar    1  UNL1        0.1197
      7 C         142.8221  141.7508  161.3951 C.ar    1  UNL1        0.1037
      8 N         143.0199  140.9484  162.6469 N.ar    1  UNL1       -0.2107
      9 N         142.4402  141.0779  164.0242 N.ar    1  UNL1       -0.1638
     10 C         141.0937  140.4952  169.2298 C.ar    1  UNL1        0.1807
     11 C         142.1563  139.4724  168.9565 C.ar    1  UNL1        0.0520
     12 C         142.7360  139.3428  167.5791 C.ar    1  UNL1        0.0060
     13 C         142.2532  140.2361  166.4750 C.ar    1  UNL1        0.0196
     14 C         141.1906  141.2589  166.7484 C.ar    1  UNL1        0.0060
     15 C         140.6109  141.3885  168.1257 C.ar    1  UNL1        0.0520
     16 C         140.8315  141.8283  171.4442 C.3     1  UNL1        0.3254
     17 S         140.5140  140.6249  170.6071 S.O     1  UNL1        0.0581
     18 O         139.6168  139.5510  171.1473 O.co2   1  UNL1       -0.6774
     19 C         141.9307  142.9481  161.2470 C.ar    1  UNL1        0.0236
     20 C         142.1246  143.8896  160.0955 C.ar    1  UNL1        0.0018
     21 C         141.2332  145.0869  159.9474 C.ar    1  UNL1        0.0045
     22 C         140.1479  145.3426  160.9507 C.ar    1  UNL1        0.0519
     23 C         139.9540  144.4011  162.1021 C.ar    1  UNL1        0.1808
     24 C         140.8454  143.2038  162.2502 C.ar    1  UNL1        0.0535
     25 S         138.8686  144.6568  163.1055 S.O     1  UNL1        0.0581
     26 C         139.2185  144.8955  164.5444 C.3     1  UNL1        0.3254
     27 O         137.4333  144.6738  162.6699 O.co2   1  UNL1       -0.6774
@<TRIPOS>UNITY_ATOM_ATTR
17 1
charge 1
18 1
charge -1
25 1
charge 1
27 1
charge -1
@<TRIPOS>BOND
     1    16    17    1
     2    17    18    2
     3    17    10    1
     4    10    11   ar
     5    11    12   ar
     6    12    13   ar
     7    13     1    1
     8     1     2   ar
     9     2     3   ar
    10     3     4   ar
    11     4     5   ar
    12     5     6   ar
    13     6     7   ar
    14     7    19    1
    15    19    20   ar
    16    20    21   ar
    17    21    22   ar
    18    22    23   ar
    19    23    25    1
    20    25    26    1
    21    25    27    2
    22    23    24   ar
    23     7     8   ar
    24     8     9   ar
    25    13    14   ar
    26    14    15   ar
    27    15    10   ar
    28     9     1   ar
    29     8     4   ar
    30    24    19   ar
@<TRIPOS>MOLECULE
*****
 27 30 0 0 0
SMALL
GASTEIGER

@<TRIPOS>ATOM
      1 C         139.8230  142.9129  165.0684 C.ar    1  UNL1        0.1014
      2 C         138.9401  144.1156  164.9142 C.ar    1  UNL1        0.0240
      3 C         138.7602  144.7458  163.5650 C.ar    1  UNL1        0.0404
      4 C         139.4633  144.1734  162.3701 C.ar    1  UNL1        0.1639
      5 N         139.4778  144.5769  160.9253 N.ar    1  UNL1       -0.2234
      6 C         140.3697  143.6235  160.1868 C.ar    1  UNL1        0.1197
      7 C         140.9064  142.6308  161.1750 C.ar    1  UNL1        0.1037
      8 N         140.3463  142.9707  162.5243 N.ar    1  UNL1       -0.2107
      9 N         140.5261  142.3404  163.8735 N.ar    1  UNL1       -0.1638
     10 C         140.3627  141.0220  169.1162 C.ar    1  UNL1        0.1807
     11 C         139.9690  140.1778  167.9405 C.ar    1  UNL1        0.0520
     12 C         139.7891  140.8081  166.5912 C.ar    1  UNL1        0.0060
     13 C         140.0029  142.2826  166.4177 C.ar    1  UNL1        0.0196
     14 C         140.3966  143.1268  167.5934 C.ar    1  UNL1        0.0060
     15 C         140.5765  142.4966  168.9426 C.ar    1  UNL1        0.0520
     16 C         141.8080  140.6209  171.2375 C.3     1  UNL1        0.3254
     17 S         140.5426  140.3918  170.4654 S.O     1  UNL1        0.0581
     18 O         139.4571  139.5323  171.0425 O.co2   1  UNL1       -0.6774
     19 C         141.8395  141.4973  160.8678 C.ar    1  UNL1        0.0236
     20 C         143.0886  141.3135  161.6777 C.ar    1  UNL1        0.0018
     21 C         144.0217  140.1800  161.3705 C.ar    1  UNL1        0.0045
     22 C         143.7058  139.2301  160.2534 C.ar    1  UNL1        0.0519
     23 C         142.4567  139.4139  159.4435 C.ar    1  UNL1        0.1808
     24 C         141.5236  140.5474  159.7507 C.ar    1  UNL1        0.0535
     25 S         142.1407  138.4640  158.3263 S.O     1  UNL1        0.0581
     26 C         140.7149  138.2218  157.9285 C.3     1  UNL1        0.3254
     27 O         143.2506  137.7564  157.6070 O.co2   1  UNL1       -0.6774
@<TRIPOS>UNITY_ATOM_ATTR
17 1
charge 1
18 1
charge -1
25 1
charge 1
27 1
charge -1
@<TRIPOS>BOND
     1    16    17    1
     2    17    18    2
     3    17    10    1
     4    10    11   ar
     5    11    12   ar
     6    12    13   ar
     7    13     1    1
     8     1     2   ar
     9     2     3   ar
    10     3     4   ar
    11     4     5   ar
    12     5     6   ar
    13     6     7   ar
    14     7    19    1
    15    19    20   ar
    16    20    21   ar
    17    21    22   ar
    18    22    23   ar
    19    23    25    1
    20    25    26    1
    21    25    27    2
    22    23    24   ar
    23     7     8   ar
    24     8     9   ar
    25    13    14   ar
    26    14    15   ar
    27    15    10   ar
    28     9     1   ar
    29     8     4   ar
    30    24    19   ar
@<TRIPOS>MOLECULE
*****
 27 30 0 0 0
SMALL
GASTEIGER

@<TRIPOS>ATOM
      1 C         143.3147  142.4646  164.9287 C.ar    1  UNL1        0.1014
      2 C         144.8128  142.4627  164.8534 C.ar    1  UNL1        0.0240
      3 C         145.4966  142.4316  163.5188 C.ar    1  UNL1        0.0404
      4 C         144.6823  142.4023  162.2594 C.ar    1  UNL1        0.1639
      5 N         145.0737  142.3685  160.8116 N.ar    1  UNL1       -0.2234
      6 C         143.8175  142.3495  159.9922 C.ar    1  UNL1        0.1197
      7 C         142.6498  142.3715  160.9335 C.ar    1  UNL1        0.1037
      8 N         143.1843  142.4041  162.3346 N.ar    1  UNL1       -0.2107
      9 N         142.5005  142.4353  163.6693 N.ar    1  UNL1       -0.1638
     10 C         141.2631  142.5580  168.9328 C.ar    1  UNL1        0.1807
     11 C         140.4569  142.6815  167.6739 C.ar    1  UNL1        0.0520
     12 C         141.1408  142.6503  166.3392 C.ar    1  UNL1        0.0060
     13 C         142.6308  142.4957  166.2634 C.ar    1  UNL1        0.0196
     14 C         143.4371  142.3722  167.5223 C.ar    1  UNL1        0.0060
     15 C         142.7533  142.4033  168.8569 C.ar    1  UNL1        0.0520
     16 C         140.7888  141.4698  171.2437 C.3     1  UNL1        0.3254
     17 S         140.5793  142.5891  170.2675 S.O     1  UNL1        0.0581
     18 O         139.6860  143.7395  170.6259 O.co2   1  UNL1       -0.6774
     19 C         141.2017  142.3624  160.5423 C.ar    1  UNL1        0.0236
     20 C         140.7356  143.1783  159.3731 C.ar    1  UNL1        0.0018
     21 C         139.2875  143.1693  158.9819 C.ar    1  UNL1        0.0045
     22 C         138.3055  142.3444  159.7598 C.ar    1  UNL1        0.0519
     23 C         138.7717  141.5285  160.9290 C.ar    1  UNL1        0.1808
     24 C         140.2197  141.5375  161.3202 C.ar    1  UNL1        0.0535
     25 S         137.7897  140.7035  161.7071 S.O     1  UNL1        0.0581
     26 C         137.6686  139.2324  161.4403 C.3     1  UNL1        0.3254
     27 O         136.9289  141.3497  162.7518 O.co2   1  UNL1       -0.6774
@<TRIPOS>UNITY_ATOM_ATTR
17 1
charge 1
18 1
charge -1
25 1
charge 1
27 1
charge -1
@<TRIPOS>BOND
     1    16    17    1
     2    17    18    2
     3    17    10    1
     4    10    11   ar
     5    11    12   ar
     6    12    13   ar
     7    13     1    1
     8     1     2   ar
     9     2     3   ar
    10     3     4   ar
    11     4     5   ar
    12     5     6   ar
    13     6     7   ar
    14     7    19    1
    15    19    20   ar
    16    20    21   ar
    17    21    22   ar
    18    22    23   ar
    19    23    25    1
    20    25    26    1
    21    25    27    2
    22    23    24   ar
    23     7     8   ar
    24     8     9   ar
    25    13    14   ar
    26    14    15   ar
    27    15    10   ar
    28     9     1   ar
    29     8     4   ar
    30    24    19   ar
@<TRIPOS>MOLECULE
*****
 27 30 0 0 0
SMALL
GASTEIGER

@<TRIPOS>ATOM
      1 C         139.7537  140.7368  161.2145 C.ar    1  UNL1        0.1014
      2 C         139.3651  139.4656  160.5195 C.ar    1  UNL1        0.0240
      3 C         139.0252  138.2454  161.3229 C.ar    1  UNL1        0.0404
      4 C         139.0738  138.2964  162.8213 C.ar    1  UNL1        0.1639
      5 N         138.7938  137.2615  163.8704 N.ar    1  UNL1       -0.2234
      6 C         139.0094  137.8931  165.2137 C.ar    1  UNL1        0.1197
      7 C         139.4226  139.3184  164.9948 C.ar    1  UNL1        0.1037
      8 N         139.4625  139.5676  163.5162 N.ar    1  UNL1       -0.2107
      9 N         139.8024  140.7878  162.7128 N.ar    1  UNL1       -0.1638
     10 C         140.7736  144.3976  158.8043 C.ar    1  UNL1        0.1807
     11 C         139.5307  143.6174  158.4936 C.ar    1  UNL1        0.0520
     12 C         139.1908  142.3971  159.2970 C.ar    1  UNL1        0.0060
     13 C         140.0937  141.9571  160.4111 C.ar    1  UNL1        0.0196
     14 C         141.3365  142.7373  160.7218 C.ar    1  UNL1        0.0060
     15 C         141.6765  143.9576  159.9184 C.ar    1  UNL1        0.0520
     16 C         140.0639  146.2751  157.1547 C.3     1  UNL1        0.3254
     17 S         141.1136  145.6179  158.0010 S.O     1  UNL1        0.0581
     18 O         142.5032  146.1809  158.0439 O.co2   1  UNL1       -0.6774
     19 C         139.7403  140.3188  166.0664 C.ar    1  UNL1        0.0236
     20 C         140.2249  141.6886  165.6938 C.ar    1  UNL1        0.0018
     21 C         140.5426  142.6890  166.7653 C.ar    1  UNL1        0.0045
     22 C         140.3756  142.3197  168.2095 C.ar    1  UNL1        0.0519
     23 C         139.8909  140.9499  168.5821 C.ar    1  UNL1        0.1808
     24 C         139.5733  139.9495  167.5105 C.ar    1  UNL1        0.0535
     25 S         139.7239  140.5806  170.0264 S.O     1  UNL1        0.0581
     26 C         140.8240  140.8653  171.0054 C.3     1  UNL1        0.3254
     27 O         138.4567  139.9264  170.4915 O.co2   1  UNL1       -0.6774
@<TRIPOS>UNITY_ATOM_ATTR
17 1
charge 1
18 1
charge -1
25 1
charge 1
27 1
charge -1
@<TRIPOS>BOND
     1    16    17    1
     2    17    18    2
     3    17    10    1
     4    10    11   ar
     5    11    12   ar
     6    12    13   ar
     7    13     1    1
     8     1     2   ar
     9     2     3   ar
    10     3     4   ar
    11     4     5   ar
    12     5     6   ar
    13     6     7   ar
    14     7    19    1
    15    19    20   ar
    16    20    21   ar
    17    21    22   ar
    18    22    23   ar
    19    23    25    1
    20    25    26    1
    21    25    27    2
    22    23    24   ar
    23     7     8   ar
    24     8     9   ar
    25    13    14   ar
    26    14    15   ar
    27    15    10   ar
    28     9     1   ar
    29     8     4   ar
    30    24    19   ar
@<TRIPOS>MOLECULE
*****
 27 30 0 0 0
SMALL
GASTEIGER

@<TRIPOS>ATOM
      1 C         139.9418  143.0376  165.0368 C.ar    1  UNL1        0.1014
      2 C         139.0094  144.2124  165.0579 C.ar    1  UNL1        0.0240
      3 C         138.7857  145.0147  163.8105 C.ar    1  UNL1        0.0404
      4 C         139.4943  144.6423  162.5419 C.ar    1  UNL1        0.1639
      5 N         139.4724  145.2415  161.1669 N.ar    1  UNL1       -0.2234
      6 C         140.3912  144.4369  160.2961 C.ar    1  UNL1        0.1197
      7 C         140.9810  143.3406  161.1328 C.ar    1  UNL1        0.1037
      8 N         140.4267  143.4675  162.5208 N.ar    1  UNL1       -0.2107
      9 N         140.6504  142.6651  163.7683 N.ar    1  UNL1       -0.1638
     10 C         140.6132  140.6304  168.7791 C.ar    1  UNL1        0.1807
     11 C         140.2970  139.9363  167.4875 C.ar    1  UNL1        0.0520
     12 C         140.0732  140.7387  166.2401 C.ar    1  UNL1        0.0060
     13 C         140.1656  142.2352  166.2843 C.ar    1  UNL1        0.0196
     14 C         140.4818  142.9293  167.5758 C.ar    1  UNL1        0.0060
     15 C         140.7056  142.1269  168.8233 C.ar    1  UNL1        0.0520
     16 C         142.1558  139.1513  170.2565 C.3     1  UNL1        0.3254
     17 S         140.8370  139.8280  170.0266 S.O     1  UNL1        0.0581
     18 O         139.7421  139.7024  171.0441 O.co2   1  UNL1       -0.6774
     19 C         141.9542  142.2999  160.6639 C.ar    1  UNL1        0.0236
     20 C         143.0340  142.6676  159.6898 C.ar    1  UNL1        0.0018
     21 C         144.0072  141.6270  159.2209 C.ar    1  UNL1        0.0045
     22 C         143.9007  140.2187  159.7260 C.ar    1  UNL1        0.0519
     23 C         142.8209  139.8510  160.7001 C.ar    1  UNL1        0.1808
     24 C         141.8477  140.8916  161.1690 C.ar    1  UNL1        0.0535
     25 S         142.7144  138.4425  161.2053 S.O     1  UNL1        0.0581
     26 C         141.3878  137.9049  161.6536 C.3     1  UNL1        0.3254
     27 O         143.9345  137.5718  161.2621 O.co2   1  UNL1       -0.6774
@<TRIPOS>UNITY_ATOM_ATTR
17 1
charge 1
18 1
charge -1
25 1
charge 1
27 1
charge -1
@<TRIPOS>BOND
     1    16    17    1
     2    17    18    2
     3    17    10    1
     4    10    11   ar
     5    11    12   ar
     6    12    13   ar
     7    13     1    1
     8     1     2   ar
     9     2     3   ar
    10     3     4   ar
    11     4     5   ar
    12     5     6   ar
    13     6     7   ar
    14     7    19    1
    15    19    20   ar
    16    20    21   ar
    17    21    22   ar
    18    22    23   ar
    19    23    25    1
    20    25    26    1
    21    25    27    2
    22    23    24   ar
    23     7     8   ar
    24     8     9   ar
    25    13    14   ar
    26    14    15   ar
    27    15    10   ar
    28     9     1   ar
    29     8     4   ar
    30    24    19   ar
