@<TRIPOS>MOLECULE
*****
 32 36 0 0 0
SMALL
GASTEIGER

@<TRIPOS>ATOM
      1 N         140.0117  139.9407  167.0436 N.am    1  UNL1       -0.2743
      2 C         141.2978  140.5313  166.5464 C.3     1  UNL1        0.0984
      3 C         141.7081  140.3390  165.1165 C.3     1  UNL1        0.0480
      4 C         140.8322  139.5561  164.1837 C.ar    1  UNL1       -0.0161
      5 C         141.2425  139.3639  162.7538 C.ar    1  UNL1       -0.0041
      6 C         140.3667  138.5810  161.8211 C.ar    1  UNL1       -0.0003
      7 C         139.0806  137.9905  162.3182 C.ar    1  UNL1        0.0001
      8 C         138.6703  138.1828  163.7481 C.ar    1  UNL1        0.0042
      9 C         139.5461  138.9656  164.6809 C.ar    1  UNL1        0.0497
     10 C         139.1359  139.1579  166.1109 C.2     1  UNL1        0.2488
     11 O         137.8498  138.5674  166.6080 O.2     1  UNL1       -0.2699
     12 C         140.7769  138.3887  160.3911 C.ar    1  UNL1       -0.0000
     13 C         139.7744  138.5774  159.2914 C.ar    1  UNL1        0.0001
     14 C         140.1846  138.3851  157.8615 C.ar    1  UNL1        0.0045
     15 C         141.5973  138.0041  157.5312 C.ar    1  UNL1        0.0536
     16 C         142.5999  137.8154  158.6309 C.ar    1  UNL1        0.0045
     17 C         142.1896  138.0078  160.0609 C.ar    1  UNL1        0.0001
     18 C         142.0075  137.8118  156.1012 C.2     1  UNL1        0.2490
     19 O         142.2599  139.0040  155.2266 O.2     1  UNL1       -0.2699
     20 N         142.1653  136.4274  155.5459 N.am    1  UNL1       -0.2761
     21 C         142.5675  136.0806  154.1431 C.3     1  UNL1        0.0938
     22 C         142.5994  134.5855  154.0261 C.3     1  UNL1        0.0233
     23 C         142.2169  134.0082  155.3567 C.3     1  UNL1        0.0233
     24 C         141.9486  135.1465  156.2959 C.3     1  UNL1        0.0938
     25 C         139.6015  140.1331  168.4736 C.3     1  UNL1        0.1110
     26 C         140.6173  140.0021  169.5694 C.3     1  UNL1        0.0938
     27 C         139.9398  143.0493  170.5209 C.3     1  UNL1        0.0173
     28 C         141.3054  142.4971  170.2375 C.3     1  UNL1        0.0576
     29 C         142.5993  143.2487  170.3418 C.3     1  UNL1        0.0174
     30 C         143.7105  142.3125  169.9688 C.3     1  UNL1        0.0187
     31 C         143.1032  140.9824  169.6341 C.3     1  UNL1        0.0721
     32 N         141.6168  141.0965  169.8002 N.3     1  UNL1       -0.2725
@<TRIPOS>BOND
     1    28    27    1
     2    28    29    1
     3    29    30    1
     4    30    31    1
     5    31    32    1
     6    32    26    1
     7    26    25    1
     8    25     1    1
     9     1     2    1
    10     2     3    1
    11     3     4    1
    12     4     5   ar
    13     5     6   ar
    14     6    12    1
    15    12    13   ar
    16    13    14   ar
    17    14    15   ar
    18    15    18    1
    19    18    19    2
    20    18    20   am
    21    20    21    1
    22    21    22    1
    23    22    23    1
    24    23    24    1
    25    15    16   ar
    26    16    17   ar
    27     6     7   ar
    28     7     8   ar
    29     8     9   ar
    30     9    10    1
    31    10    11    2
    32    32    28    1
    33    10     1   am
    34     9     4   ar
    35    17    12   ar
    36    24    20    1
@<TRIPOS>MOLECULE
*****
 32 36 0 0 0
SMALL
GASTEIGER

@<TRIPOS>ATOM
      1 N         141.6880  138.5466  156.3565 N.am    1  UNL1       -0.2743
      2 C         142.7056  138.0214  157.3253 C.3     1  UNL1        0.0984
      3 C         142.4114  138.0224  158.7961 C.3     1  UNL1        0.0480
      4 C         141.0994  138.5487  159.2982 C.ar    1  UNL1       -0.0161
      5 C         140.8051  138.5498  160.7690 C.ar    1  UNL1       -0.0041
      6 C         139.4933  139.0760  161.2709 C.ar    1  UNL1       -0.0003
      7 C         138.4757  139.6012  160.3021 C.ar    1  UNL1        0.0001
      8 C         138.7700  139.6002  158.8313 C.ar    1  UNL1        0.0042
      9 C         140.0818  139.0739  158.3293 C.ar    1  UNL1        0.0497
     10 C         140.3762  139.0728  156.8584 C.2     1  UNL1        0.2488
     11 O         139.3586  139.5980  155.8896 O.2     1  UNL1       -0.2699
     12 C         139.1989  139.0771  162.7418 C.ar    1  UNL1       -0.0000
     13 C         139.7166  137.9696  163.6111 C.ar    1  UNL1        0.0001
     14 C         139.4223  137.9707  165.0819 C.ar    1  UNL1        0.0045
     15 C         138.6103  139.0792  165.6835 C.ar    1  UNL1        0.0536
     16 C         138.0926  140.1866  164.8143 C.ar    1  UNL1        0.0045
     17 C         138.3870  140.1855  163.3434 C.ar    1  UNL1        0.0001
     18 C         138.3160  139.0802  167.1544 C.2     1  UNL1        0.2490
     19 O         137.2829  138.1473  167.7131 O.2     1  UNL1       -0.2699
     20 N         139.0549  140.0141  168.0664 N.am    1  UNL1       -0.2761
     21 C         138.8691  140.1278  169.5505 C.3     1  UNL1        0.0938
     22 C         139.8086  141.1823  170.0559 C.3     1  UNL1        0.0233
     23 C         140.5750  141.7204  168.8841 C.3     1  UNL1        0.0233
     24 C         140.1092  140.9984  167.6546 C.3     1  UNL1        0.0938
     25 C         141.9824  138.5455  154.8856 C.3     1  UNL1        0.1110
     26 C         142.9735  137.5721  154.3197 C.3     1  UNL1        0.0938
     27 C         143.9186  134.9108  155.9549 C.3     1  UNL1        0.0173
     28 C         142.9900  134.9386  154.7773 C.3     1  UNL1        0.0576
     29 C         142.3327  133.7480  154.1445 C.3     1  UNL1        0.0174
     30 C         141.4921  134.2354  153.0018 C.3     1  UNL1        0.0187
     31 C         141.6298  135.7273  152.9284 C.3     1  UNL1        0.0721
     32 N         142.5555  136.1619  154.0257 N.3     1  UNL1       -0.2725
@<TRIPOS>BOND
     1    28    27    1
     2    28    29    1
     3    29    30    1
     4    30    31    1
     5    31    32    1
     6    32    26    1
     7    26    25    1
     8    25     1    1
     9     1     2    1
    10     2     3    1
    11     3     4    1
    12     4     5   ar
    13     5     6   ar
    14     6    12    1
    15    12    13   ar
    16    13    14   ar
    17    14    15   ar
    18    15    18    1
    19    18    19    2
    20    18    20   am
    21    20    21    1
    22    21    22    1
    23    22    23    1
    24    23    24    1
    25    15    16   ar
    26    16    17   ar
    27     6     7   ar
    28     7     8   ar
    29     8     9   ar
    30     9    10    1
    31    10    11    2
    32    32    28    1
    33    10     1   am
    34     9     4   ar
    35    17    12   ar
    36    24    20    1
@<TRIPOS>MOLECULE
*****
 32 36 0 0 0
SMALL
GASTEIGER

@<TRIPOS>ATOM
      1 N         138.9733  141.2366  156.0842 N.am    1  UNL1       -0.2743
      2 C         138.5153  142.4211  156.8825 C.3     1  UNL1        0.0984
      3 C         138.3780  142.3138  158.3723 C.3     1  UNL1        0.0480
      4 C         138.6987  141.0219  159.0639 C.ar    1  UNL1       -0.0161
      5 C         138.5613  140.9146  160.5538 C.ar    1  UNL1       -0.0041
      6 C         138.8820  139.6228  161.2453 C.ar    1  UNL1       -0.0003
      7 C         139.3399  138.4383  160.4471 C.ar    1  UNL1        0.0001
      8 C         139.4772  138.5456  158.9573 C.ar    1  UNL1        0.0042
      9 C         139.1566  139.8374  158.2657 C.ar    1  UNL1        0.0497
     10 C         139.2939  139.9447  156.7758 C.2     1  UNL1        0.2488
     11 O         139.7519  138.7602  155.9776 O.2     1  UNL1       -0.2699
     12 C         138.7446  139.5154  162.7352 C.ar    1  UNL1       -0.0000
     13 C         138.1610  140.6537  163.5185 C.ar    1  UNL1        0.0001
     14 C         138.0237  140.5464  165.0083 C.ar    1  UNL1        0.0045
     15 C         138.4700  139.3008  165.7149 C.ar    1  UNL1        0.0536
     16 C         139.0537  138.1625  164.9316 C.ar    1  UNL1        0.0045
     17 C         139.1910  138.2698  163.4417 C.ar    1  UNL1        0.0001
     18 C         138.3327  139.1935  167.2047 C.2     1  UNL1        0.2490
     19 O         137.3363  138.2431  167.7995 O.2     1  UNL1       -0.2699
     20 N         139.1918  140.0366  168.0998 N.am    1  UNL1       -0.2761
     21 C         139.1672  140.0381  169.5996 C.3     1  UNL1        0.0938
     22 C         140.1865  141.0287  170.0789 C.3     1  UNL1        0.0233
     23 C         140.8411  141.6394  168.8753 C.3     1  UNL1        0.0233
     24 C         140.2263  141.0262  167.6522 C.3     1  UNL1        0.0938
     25 C         139.1106  141.3439  154.5943 C.3     1  UNL1        0.1110
     26 C         137.8925  141.2738  153.7219 C.3     1  UNL1        0.0938
     27 C         136.8274  138.2157  154.1263 C.3     1  UNL1        0.0173
     28 C         136.0826  139.4646  154.4943 C.3     1  UNL1        0.0576
     29 C         134.7175  139.5272  155.1128 C.3     1  UNL1        0.0174
     30 C         134.3634  140.9715  155.3091 C.3     1  UNL1        0.0187
     31 C         135.5096  141.8016  154.8120 C.3     1  UNL1        0.0721
     32 N         136.5722  140.8703  154.3084 N.3     1  UNL1       -0.2725
@<TRIPOS>BOND
     1    28    27    1
     2    28    29    1
     3    29    30    1
     4    30    31    1
     5    31    32    1
     6    32    26    1
     7    26    25    1
     8    25     1    1
     9     1     2    1
    10     2     3    1
    11     3     4    1
    12     4     5   ar
    13     5     6   ar
    14     6    12    1
    15    12    13   ar
    16    13    14   ar
    17    14    15   ar
    18    15    18    1
    19    18    19    2
    20    18    20   am
    21    20    21    1
    22    21    22    1
    23    22    23    1
    24    23    24    1
    25    15    16   ar
    26    16    17   ar
    27     6     7   ar
    28     7     8   ar
    29     8     9   ar
    30     9    10    1
    31    10    11    2
    32    32    28    1
    33    10     1   am
    34     9     4   ar
    35    17    12   ar
    36    24    20    1
@<TRIPOS>MOLECULE
*****
 32 36 0 0 0
SMALL
GASTEIGER

@<TRIPOS>ATOM
      1 N         143.9162  141.6130  157.3758 N.am    1  UNL1       -0.2743
      2 C         143.8059  142.8888  158.1569 C.3     1  UNL1        0.0984
      3 C         143.6137  142.8436  159.6438 C.3     1  UNL1        0.0480
      4 C         143.5317  141.5225  160.3497 C.ar    1  UNL1       -0.0161
      5 C         143.3394  141.4774  161.8366 C.ar    1  UNL1       -0.0041
      6 C         143.2574  140.1563  162.5424 C.ar    1  UNL1       -0.0003
      7 C         143.3676  138.8805  161.7613 C.ar    1  UNL1        0.0001
      8 C         143.5599  138.9257  160.2743 C.ar    1  UNL1        0.0042
      9 C         143.6419  140.2467  159.5686 C.ar    1  UNL1        0.0497
     10 C         143.8341  140.2920  158.0816 C.2     1  UNL1        0.2488
     11 O         143.9444  139.0162  157.3004 O.2     1  UNL1       -0.2699
     12 C         143.0651  140.1111  164.0294 C.ar    1  UNL1       -0.0000
     13 C         142.7736  138.8058  164.7085 C.ar    1  UNL1        0.0001
     14 C         142.5813  138.7605  166.1954 C.ar    1  UNL1        0.0045
     15 C         142.6806  140.0206  167.0033 C.ar    1  UNL1        0.0536
     16 C         142.9722  141.3258  166.3241 C.ar    1  UNL1        0.0045
     17 C         143.1645  141.3711  164.8371 C.ar    1  UNL1        0.0001
     18 C         142.4884  139.9753  168.4902 C.2     1  UNL1        0.2490
     19 O         143.1158  138.8755  169.2943 O.2     1  UNL1       -0.2699
     20 N         141.6687  141.0298  169.1729 N.am    1  UNL1       -0.2761
     21 C         141.3902  141.1148  170.6444 C.3     1  UNL1        0.0938
     22 C         140.5330  142.3220  170.8850 C.3     1  UNL1        0.0233
     23 C         140.2818  142.9831  169.5622 C.3     1  UNL1        0.0233
     24 C         140.9837  142.1845  168.5041 C.3     1  UNL1        0.0938
     25 C         144.1084  141.6582  155.8888 C.3     1  UNL1        0.1110
     26 C         145.0234  142.6800  155.2816 C.3     1  UNL1        0.0938
     27 C         147.3936  142.9388  157.5098 C.3     1  UNL1        0.0173
     28 C         147.5621  142.4757  156.0930 C.3     1  UNL1        0.0576
     29 C         148.8496  142.0503  155.4518 C.3     1  UNL1        0.0174
     30 C         148.5558  141.6684  154.0312 C.3     1  UNL1        0.0187
     31 C         147.0868  141.8579  153.7946 C.3     1  UNL1        0.0721
     32 N         146.4726  142.3568  155.0689 N.3     1  UNL1       -0.2725
@<TRIPOS>BOND
     1    28    27    1
     2    28    29    1
     3    29    30    1
     4    30    31    1
     5    31    32    1
     6    32    26    1
     7    26    25    1
     8    25     1    1
     9     1     2    1
    10     2     3    1
    11     3     4    1
    12     4     5   ar
    13     5     6   ar
    14     6    12    1
    15    12    13   ar
    16    13    14   ar
    17    14    15   ar
    18    15    18    1
    19    18    19    2
    20    18    20   am
    21    20    21    1
    22    21    22    1
    23    22    23    1
    24    23    24    1
    25    15    16   ar
    26    16    17   ar
    27     6     7   ar
    28     7     8   ar
    29     8     9   ar
    30     9    10    1
    31    10    11    2
    32    32    28    1
    33    10     1   am
    34     9     4   ar
    35    17    12   ar
    36    24    20    1
@<TRIPOS>MOLECULE
*****
 32 36 0 0 0
SMALL
GASTEIGER

@<TRIPOS>ATOM
      1 N         141.4580  137.8732  157.2223 N.am    1  UNL1       -0.2743
      2 C         142.6819  137.6397  158.0576 C.3     1  UNL1        0.0984
      3 C         142.6465  137.9118  159.5322 C.3     1  UNL1        0.0480
      4 C         141.3874  138.4175  160.1717 C.ar    1  UNL1       -0.0161
      5 C         141.3520  138.6896  161.6463 C.ar    1  UNL1       -0.0041
      6 C         140.0929  139.1952  162.2857 C.ar    1  UNL1       -0.0003
      7 C         138.8691  139.4288  161.4504 C.ar    1  UNL1        0.0001
      8 C         138.9044  139.1567  159.9758 C.ar    1  UNL1        0.0042
      9 C         140.1635  138.6510  159.3364 C.ar    1  UNL1        0.0497
     10 C         140.1989  138.3789  157.8617 C.2     1  UNL1        0.2488
     11 O         138.9751  138.6124  157.0264 O.2     1  UNL1       -0.2699
     12 C         140.0576  139.4674  163.7604 C.ar    1  UNL1       -0.0000
     13 C         139.0376  140.4115  164.3246 C.ar    1  UNL1        0.0001
     14 C         139.0022  140.6836  165.7993 C.ar    1  UNL1        0.0045
     15 C         139.9868  140.0116  166.7098 C.ar    1  UNL1        0.0536
     16 C         141.0068  139.0675  166.1457 C.ar    1  UNL1        0.0045
     17 C         141.0421  138.7954  164.6709 C.ar    1  UNL1        0.0001
     18 C         139.9514  140.2838  168.1845 C.2     1  UNL1        0.2490
     19 O         138.8452  139.7185  169.0251 O.2     1  UNL1       -0.2699
     20 N         141.0222  141.1213  168.8185 N.am    1  UNL1       -0.2761
     21 C         141.1184  141.4766  170.2726 C.3     1  UNL1        0.0938
     22 C         142.3405  142.3254  170.4626 C.3     1  UNL1        0.0233
     23 C         142.9996  142.4946  169.1258 C.3     1  UNL1        0.0233
     24 C         142.1849  141.7505  168.1098 C.3     1  UNL1        0.0938
     25 C         141.4934  137.6011  155.7475 C.3     1  UNL1        0.1110
     26 C         142.5216  136.6669  155.1817 C.3     1  UNL1        0.0938
     27 C         141.5152  134.9945  152.5664 C.3     1  UNL1        0.0173
     28 C         141.7853  134.4243  153.9273 C.3     1  UNL1        0.0576
     29 C         141.6401  132.9853  154.3250 C.3     1  UNL1        0.0174
     30 C         142.0130  132.8647  155.7729 C.3     1  UNL1        0.0187
     31 C         142.3886  134.2292  156.2701 C.3     1  UNL1        0.0721
     32 N         142.2478  135.1931  155.1294 N.3     1  UNL1       -0.2725
@<TRIPOS>BOND
     1    28    27    1
     2    28    29    1
     3    29    30    1
     4    30    31    1
     5    31    32    1
     6    32    26    1
     7    26    25    1
     8    25     1    1
     9     1     2    1
    10     2     3    1
    11     3     4    1
    12     4     5   ar
    13     5     6   ar
    14     6    12    1
    15    12    13   ar
    16    13    14   ar
    17    14    15   ar
    18    15    18    1
    19    18    19    2
    20    18    20   am
    21    20    21    1
    22    21    22    1
    23    22    23    1
    24    23    24    1
    25    15    16   ar
    26    16    17   ar
    27     6     7   ar
    28     7     8   ar
    29     8     9   ar
    30     9    10    1
    31    10    11    2
    32    32    28    1
    33    10     1   am
    34     9     4   ar
    35    17    12   ar
    36    24    20    1
@<TRIPOS>MOLECULE
*****
 32 36 0 0 0
SMALL
GASTEIGER

@<TRIPOS>ATOM
      1 N         138.1474  142.8403  162.2713 N.am    1  UNL1       -0.2743
      2 C         137.7531  141.4425  162.6466 C.3     1  UNL1        0.0984
      3 C         138.2457  140.2810  161.8354 C.3     1  UNL1        0.0480
      4 C         139.1326  140.5171  160.6489 C.ar    1  UNL1       -0.0161
      5 C         139.6251  139.3555  159.8377 C.ar    1  UNL1       -0.0041
      6 C         140.5120  139.5917  158.6512 C.ar    1  UNL1       -0.0003
      7 C         140.9062  140.9895  158.2760 C.ar    1  UNL1        0.0001
      8 C         140.4136  142.1511  159.0872 C.ar    1  UNL1        0.0042
      9 C         139.5268  141.9149  160.2736 C.ar    1  UNL1        0.0497
     10 C         139.0342  143.0765  161.0849 C.2     1  UNL1        0.2488
     11 O         139.4285  144.4742  160.7096 O.2     1  UNL1       -0.2699
     12 C         141.0046  138.4301  157.8400 C.ar    1  UNL1       -0.0000
     13 C         142.4432  138.0136  157.9232 C.ar    1  UNL1        0.0001
     14 C         142.9358  136.8521  157.1120 C.ar    1  UNL1        0.0045
     15 C         141.9898  136.1070  156.2175 C.ar    1  UNL1        0.0536
     16 C         140.5512  136.5235  156.1343 C.ar    1  UNL1        0.0045
     17 C         140.0586  137.6851  156.9456 C.ar    1  UNL1        0.0001
     18 C         142.4825  134.9454  155.4063 C.2     1  UNL1        0.2490
     19 O         142.1310  134.8439  153.9516 O.2     1  UNL1       -0.2699
     20 N         143.3265  133.8855  156.0498 N.am    1  UNL1       -0.2761
     21 C         143.8886  132.6725  155.3696 C.3     1  UNL1        0.0938
     22 C         144.6662  131.8897  156.3859 C.3     1  UNL1        0.0233
     23 C         144.5846  132.6190  157.6941 C.3     1  UNL1        0.0233
     24 C         143.7567  133.8524  157.4864 C.3     1  UNL1        0.0938
     25 C         137.6548  144.0019  163.0826 C.3     1  UNL1        0.1110
     26 C         138.3925  144.4188  164.3203 C.3     1  UNL1        0.0938
     27 C         141.4130  145.2951  163.4496 C.3     1  UNL1        0.0173
     28 C         141.0488  144.1211  164.3092 C.3     1  UNL1        0.0576
     29 C         142.0091  143.1437  164.9196 C.3     1  UNL1        0.0174
     30 C         141.2141  142.1368  165.6970 C.3     1  UNL1        0.0187
     31 C         139.7626  142.4920  165.5671 C.3     1  UNL1        0.0721
     32 N         139.6604  143.7183  164.7094 N.3     1  UNL1       -0.2725
@<TRIPOS>BOND
     1    28    27    1
     2    28    29    1
     3    29    30    1
     4    30    31    1
     5    31    32    1
     6    32    26    1
     7    26    25    1
     8    25     1    1
     9     1     2    1
    10     2     3    1
    11     3     4    1
    12     4     5   ar
    13     5     6   ar
    14     6    12    1
    15    12    13   ar
    16    13    14   ar
    17    14    15   ar
    18    15    18    1
    19    18    19    2
    20    18    20   am
    21    20    21    1
    22    21    22    1
    23    22    23    1
    24    23    24    1
    25    15    16   ar
    26    16    17   ar
    27     6     7   ar
    28     7     8   ar
    29     8     9   ar
    30     9    10    1
    31    10    11    2
    32    32    28    1
    33    10     1   am
    34     9     4   ar
    35    17    12   ar
    36    24    20    1
@<TRIPOS>MOLECULE
*****
 32 36 0 0 0
SMALL
GASTEIGER

@<TRIPOS>ATOM
      1 N         138.3714  140.3914  164.3642 N.am    1  UNL1       -0.2743
      2 C         138.5527  141.8505  164.6610 C.3     1  UNL1        0.0984
      3 C         138.8237  142.8150  163.5446 C.3     1  UNL1        0.0480
      4 C         138.9134  142.3204  162.1313 C.ar    1  UNL1       -0.0161
      5 C         139.1843  143.2848  161.0149 C.ar    1  UNL1       -0.0041
      6 C         139.2740  142.7902  159.6017 C.ar    1  UNL1       -0.0003
      7 C         139.0927  141.3311  159.3049 C.ar    1  UNL1        0.0001
      8 C         138.8218  140.3666  160.4213 C.ar    1  UNL1        0.0042
      9 C         138.7321  140.8612  161.8345 C.ar    1  UNL1        0.0497
     10 C         138.4611  139.8968  162.9509 C.2     1  UNL1        0.2488
     11 O         138.2798  138.4376  162.6541 O.2     1  UNL1       -0.2699
     12 C         139.5450  143.7546  158.4853 C.ar    1  UNL1       -0.0000
     13 C         138.8884  143.5606  157.1506 C.ar    1  UNL1        0.0001
     14 C         139.1593  144.5250  156.0342 C.ar    1  UNL1        0.0045
     15 C         140.0869  145.6835  156.2524 C.ar    1  UNL1        0.0536
     16 C         140.7435  145.8776  157.5870 C.ar    1  UNL1        0.0045
     17 C         140.4726  144.9131  158.7034 C.ar    1  UNL1        0.0001
     18 C         140.3579  146.6479  155.1359 C.2     1  UNL1        0.2490
     19 O         141.2390  146.2423  153.9918 O.2     1  UNL1       -0.2699
     20 N         139.7477  148.0179  155.1636 N.am    1  UNL1       -0.2761
     21 C         139.9272  149.0842  154.1240 C.3     1  UNL1        0.0938
     22 C         139.1414  150.2875  154.5537 C.3     1  UNL1        0.0233
     23 C         138.4762  149.9649  155.8589 C.3     1  UNL1        0.0233
     24 C         138.8510  148.5622  156.2358 C.3     1  UNL1        0.0938
     25 C         138.1004  139.4269  165.4806 C.3     1  UNL1        0.1110
     26 C         139.1977  139.0549  166.4332 C.3     1  UNL1        0.0938
     27 C         141.0220  137.2569  164.4112 C.3     1  UNL1        0.0173
     28 C         141.4673  138.4907  165.1388 C.3     1  UNL1        0.0576
     29 C         142.8293  139.1147  165.0646 C.3     1  UNL1        0.0174
     30 C         142.8325  140.3269  165.9482 C.3     1  UNL1        0.0187
     31 C         141.4725  140.4520  166.5684 C.3     1  UNL1        0.0721
     32 N         140.6287  139.3172  166.0682 N.3     1  UNL1       -0.2725
@<TRIPOS>BOND
     1    28    27    1
     2    28    29    1
     3    29    30    1
     4    30    31    1
     5    31    32    1
     6    32    26    1
     7    26    25    1
     8    25     1    1
     9     1     2    1
    10     2     3    1
    11     3     4    1
    12     4     5   ar
    13     5     6   ar
    14     6    12    1
    15    12    13   ar
    16    13    14   ar
    17    14    15   ar
    18    15    18    1
    19    18    19    2
    20    18    20   am
    21    20    21    1
    22    21    22    1
    23    22    23    1
    24    23    24    1
    25    15    16   ar
    26    16    17   ar
    27     6     7   ar
    28     7     8   ar
    29     8     9   ar
    30     9    10    1
    31    10    11    2
    32    32    28    1
    33    10     1   am
    34     9     4   ar
    35    17    12   ar
    36    24    20    1
@<TRIPOS>MOLECULE
*****
 32 36 0 0 0
SMALL
GASTEIGER

@<TRIPOS>ATOM
      1 N         139.5012  139.7473  165.5857 N.am    1  UNL1       -0.2743
      2 C         138.9492  138.4031  165.2137 C.3     1  UNL1        0.0984
      3 C         139.1616  137.8615  163.8311 C.3     1  UNL1        0.0480
      4 C         139.9259  138.6643  162.8204 C.ar    1  UNL1       -0.0161
      5 C         140.1382  138.1228  161.4378 C.ar    1  UNL1       -0.0041
      6 C         140.9025  138.9255  160.4272 C.ar    1  UNL1       -0.0003
      7 C         141.4545  140.2697  160.7991 C.ar    1  UNL1        0.0001
      8 C         141.2422  140.8112  162.1817 C.ar    1  UNL1        0.0042
      9 C         140.4779  140.0085  163.1924 C.ar    1  UNL1        0.0497
     10 C         140.2655  140.5500  164.5751 C.2     1  UNL1        0.2488
     11 O         140.8175  141.8942  164.9470 O.2     1  UNL1       -0.2699
     12 C         141.1149  138.3840  159.0445 C.ar    1  UNL1       -0.0000
     13 C         142.4985  138.0406  158.5778 C.ar    1  UNL1        0.0001
     14 C         142.7109  137.4992  157.1952 C.ar    1  UNL1        0.0045
     15 C         141.5396  137.3010  156.2792 C.ar    1  UNL1        0.0536
     16 C         140.1560  137.6443  156.7459 C.ar    1  UNL1        0.0045
     17 C         139.9437  138.1858  158.1286 C.ar    1  UNL1        0.0001
     18 C         141.7520  136.7595  154.8966 C.2     1  UNL1        0.2490
     19 O         141.8433  137.6975  153.7296 O.2     1  UNL1       -0.2699
     20 N         141.8731  135.2800  154.6809 N.am    1  UNL1       -0.2761
     21 C         142.0861  134.5956  153.3633 C.3     1  UNL1        0.0938
     22 C         142.1471  133.1178  153.6130 C.3     1  UNL1        0.0233
     23 C         141.9717  132.8888  155.0850 C.3     1  UNL1        0.0233
     24 C         141.8024  134.2252  155.7450 C.3     1  UNL1        0.0938
     25 C         139.2889  140.2888  166.9684 C.3     1  UNL1        0.1110
     26 C         140.1381  139.7997  168.1040 C.3     1  UNL1        0.0938
     27 C         142.6104  138.7639  169.9652 C.3     1  UNL1        0.0173
     28 C         142.4128  140.1624  169.4601 C.3     1  UNL1        0.0576
     29 C         143.3169  141.3303  169.7219 C.3     1  UNL1        0.0174
     30 C         142.7392  142.5283  169.0281 C.3     1  UNL1        0.0187
     31 C         141.4781  142.1007  168.3376 C.3     1  UNL1        0.0721
     32 N         141.2764  140.6385  168.6046 N.3     1  UNL1       -0.2725
@<TRIPOS>BOND
     1    28    27    1
     2    28    29    1
     3    29    30    1
     4    30    31    1
     5    31    32    1
     6    32    26    1
     7    26    25    1
     8    25     1    1
     9     1     2    1
    10     2     3    1
    11     3     4    1
    12     4     5   ar
    13     5     6   ar
    14     6    12    1
    15    12    13   ar
    16    13    14   ar
    17    14    15   ar
    18    15    18    1
    19    18    19    2
    20    18    20   am
    21    20    21    1
    22    21    22    1
    23    22    23    1
    24    23    24    1
    25    15    16   ar
    26    16    17   ar
    27     6     7   ar
    28     7     8   ar
    29     8     9   ar
    30     9    10    1
    31    10    11    2
    32    32    28    1
    33    10     1   am
    34     9     4   ar
    35    17    12   ar
    36    24    20    1
@<TRIPOS>MOLECULE
*****
 32 36 0 0 0
SMALL
GASTEIGER

@<TRIPOS>ATOM
      1 N         142.7753  138.4851  165.2504 N.am    1  UNL1       -0.2743
      2 C         141.5485  137.7125  164.8653 C.3     1  UNL1        0.0984
      3 C         141.2066  137.5209  163.4175 C.3     1  UNL1        0.0480
      4 C         142.0915  138.1019  162.3546 C.ar    1  UNL1       -0.0161
      5 C         141.7496  137.9104  160.9068 C.ar    1  UNL1       -0.0041
      6 C         142.6344  138.4913  159.8440 C.ar    1  UNL1       -0.0003
      7 C         143.8611  139.2639  160.2291 C.ar    1  UNL1        0.0001
      8 C         144.2030  139.4555  161.6770 C.ar    1  UNL1        0.0042
      9 C         143.3182  138.8745  162.7397 C.ar    1  UNL1        0.0497
     10 C         143.6601  139.0661  164.1877 C.2     1  UNL1        0.2488
     11 O         144.8868  139.8386  164.5728 O.2     1  UNL1       -0.2699
     12 C         142.2925  138.2998  158.3960 C.ar    1  UNL1       -0.0000
     13 C         142.5773  136.9887  157.7253 C.ar    1  UNL1        0.0001
     14 C         142.2355  136.7971  156.2774 C.ar    1  UNL1        0.0045
     15 C         141.6088  137.9166  155.5002 C.ar    1  UNL1        0.0536
     16 C         141.3240  139.2277  156.1710 C.ar    1  UNL1        0.0045
     17 C         141.6659  139.4193  157.6189 C.ar    1  UNL1        0.0001
     18 C         141.2670  137.7250  154.0523 C.2     1  UNL1        0.2490
     19 O         142.3579  137.6782  153.0240 O.2     1  UNL1       -0.2699
     20 N         139.8341  137.5802  153.6328 N.am    1  UNL1       -0.2761
     21 C         139.3418  137.3837  152.2296 C.3     1  UNL1        0.0938
     22 C         137.8455  137.2884  152.2723 C.3     1  UNL1        0.0233
     23 C         137.4129  137.4261  153.7020 C.3     1  UNL1        0.0233
     24 C         138.6420  137.6063  154.5428 C.3     1  UNL1        0.0938
     25 C         143.1171  138.6767  166.6984 C.3     1  UNL1        0.1110
     26 C         142.7684  139.9625  167.3876 C.3     1  UNL1        0.0938
     27 C         139.6568  140.4962  166.5614 C.3     1  UNL1        0.0173
     28 C         140.1724  140.2614  167.9503 C.3     1  UNL1        0.0576
     29 C         139.3483  140.2306  169.2032 C.3     1  UNL1        0.0174
     30 C         140.2693  139.9662  170.3574 C.3     1  UNL1        0.0187
     31 C         141.6626  139.8336  169.8177 C.3     1  UNL1        0.0721
     32 N         141.6027  140.0160  168.3300 N.3     1  UNL1       -0.2725
@<TRIPOS>BOND
     1    28    27    1
     2    28    29    1
     3    29    30    1
     4    30    31    1
     5    31    32    1
     6    32    26    1
     7    26    25    1
     8    25     1    1
     9     1     2    1
    10     2     3    1
    11     3     4    1
    12     4     5   ar
    13     5     6   ar
    14     6    12    1
    15    12    13   ar
    16    13    14   ar
    17    14    15   ar
    18    15    18    1
    19    18    19    2
    20    18    20   am
    21    20    21    1
    22    21    22    1
    23    22    23    1
    24    23    24    1
    25    15    16   ar
    26    16    17   ar
    27     6     7   ar
    28     7     8   ar
    29     8     9   ar
    30     9    10    1
    31    10    11    2
    32    32    28    1
    33    10     1   am
    34     9     4   ar
    35    17    12   ar
    36    24    20    1
