@<TRIPOS>MOLECULE
*****
 40 44 0 0 0
SMALL
GASTEIGER

@<TRIPOS>ATOM
      1 C         142.2581  141.7001  160.2532 C.3     1  UNL1        0.0993
      2 N         141.5251  142.6263  159.3286 N.3     1  UNL1       -0.2690
      3 C         141.8018  144.1000  159.3687 C.3     1  UNL1        0.0724
      4 C         141.0689  145.0262  158.4441 C.3     1  UNL1        0.0195
      5 C         140.0592  144.4787  157.4794 C.3     1  UNL1        0.0300
      6 C         139.7824  143.0050  157.4392 C.3     1  UNL1        0.0195
      7 C         140.5154  142.0788  158.3638 C.3     1  UNL1        0.0724
      8 C         139.0274  144.0790  156.4665 C.3     1  UNL1        0.0873
      9 C         138.5598  145.3205  155.7664 C.2     1  UNL1        0.2294
     10 O         137.5303  145.3839  154.6774 O.2     1  UNL1       -0.2745
     11 N         139.3026  146.4875  156.3466 N.am    1  UNL1       -0.2586
     12 C         140.2292  145.9672  157.4052 C.3     1  UNL1        0.0986
     13 C         139.1462  147.9227  155.9397 C.ar    1  UNL1        0.0538
     14 C         139.6660  148.3865  154.6113 C.ar    1  UNL1        0.0149
     15 C         139.5096  149.8217  154.2043 C.ar    1  UNL1        0.0024
     16 C         138.8334  150.7932  155.1257 C.ar    1  UNL1        0.0141
     17 C         138.3135  150.3294  156.4541 C.ar    1  UNL1        0.0024
     18 C         138.4700  148.8941  156.8610 C.ar    1  UNL1        0.0149
     19 C         138.6769  152.2284  154.7187 C.2     1  UNL1        0.0729
     20 O         138.3596  152.5736  153.2938 O.co2   1  UNL1       -0.5446
     21 O         138.8378  153.3184  155.7365 O.co2   1  UNL1       -0.5446
     22 C         140.0746  141.8883  163.5618 C.ar    1  UNL1        0.1411
     23 C         140.4685  141.9724  162.1169 C.ar    1  UNL1        0.0342
     24 C         141.8641  141.6160  161.6980 C.ar    1  UNL1       -0.0001
     25 C         142.8657  141.1755  162.7242 C.ar    1  UNL1        0.0342
     26 C         142.4717  141.0914  164.1690 C.ar    1  UNL1        0.1411
     27 C         141.0761  141.4478  164.5879 C.ar    1  UNL1        0.0679
     28 C         140.6821  141.3638  166.0327 C.ar    1  UNL1        0.0060
     29 C         139.9945  140.1361  166.5524 C.ar    1  UNL1        0.0025
     30 C         139.6005  140.0521  167.9973 C.ar    1  UNL1        0.0296
     31 C         139.8942  141.1957  168.9225 C.ar    1  UNL1        0.1401
     32 F         139.5002  141.1116  170.3674 F       1  UNL1       -0.2042
     33 C         140.5818  142.4233  168.4028 C.ar    1  UNL1        0.0296
     34 C         140.9757  142.5074  166.9580 C.ar    1  UNL1        0.0025
     35 O         138.6790  142.2447  163.9806 O.3     1  UNL1       -0.4754
     36 C         138.5647  144.5686  165.1369 C.3     1  UNL1        0.0512
     37 C         138.2373  143.6783  163.9749 C.3     1  UNL1        0.2055
     38 O         143.4732  140.6509  165.1951 O.3     1  UNL1       -0.4754
     39 C         143.9501  139.2288  165.2155 C.3     1  UNL1        0.2055
     40 C         143.3771  138.2598  166.2068 C.3     1  UNL1        0.0512
@<TRIPOS>UNITY_ATOM_ATTR
20 1
charge -1
@<TRIPOS>BOND
     1    36    37    1
     2    37    35    1
     3    35    22    1
     4    22    23   ar
     5    23    24   ar
     6    24     1    1
     7     1     2    1
     8     2     3    1
     9     3     4    1
    10     4     5    1
    11     5     6    1
    12     6     7    1
    13     5     8    1
    14     8     9    1
    15     9    10    2
    16     9    11   am
    17    11    13    1
    18    13    14   ar
    19    14    15   ar
    20    15    16   ar
    21    16    19    1
    22    19    20   ar
    23    19    21   ar
    24    16    17   ar
    25    17    18   ar
    26    11    12    1
    27    24    25   ar
    28    25    26   ar
    29    26    38    1
    30    38    39    1
    31    39    40    1
    32    26    27   ar
    33    27    28    1
    34    28    29   ar
    35    29    30   ar
    36    30    31   ar
    37    31    32    1
    38    31    33   ar
    39    33    34   ar
    40    27    22   ar
    41    34    28   ar
    42     7     2    1
    43    18    13   ar
    44    12     5    1
@<TRIPOS>MOLECULE
*****
 40 44 0 0 0
SMALL
GASTEIGER

@<TRIPOS>ATOM
      1 C         142.1547  141.6497  160.2409 C.3     1  UNL1        0.0993
      2 N         141.4319  142.5836  159.3158 N.3     1  UNL1       -0.2690
      3 C         141.7234  144.0544  159.3567 C.3     1  UNL1        0.0724
      4 C         141.0006  144.9881  158.4318 C.3     1  UNL1        0.0195
      5 C         139.9864  144.4511  157.4659 C.3     1  UNL1        0.0300
      6 C         139.6949  142.9803  157.4250 C.3     1  UNL1        0.0195
      7 C         140.4176  142.0465  158.3500 C.3     1  UNL1        0.0724
      8 C         138.9516  144.0622  156.4519 C.3     1  UNL1        0.0873
      9 C         138.4972  145.3085  155.7518 C.2     1  UNL1        0.2294
     10 O         137.4693  145.3826  154.6618 O.2     1  UNL1       -0.2745
     11 N         139.2511  146.4678  156.3331 N.am    1  UNL1       -0.2586
     12 C         140.1714  145.9379  157.3924 C.3     1  UNL1        0.0986
     13 C         139.1095  147.9046  155.9264 C.ar    1  UNL1        0.0538
     14 C         139.6138  148.3586  154.5887 C.ar    1  UNL1        0.0149
     15 C         139.4721  149.7955  154.1820 C.ar    1  UNL1        0.0024
     16 C         138.8262  150.7783  155.1131 C.ar    1  UNL1        0.0141
     17 C         138.3219  150.3243  156.4509 C.ar    1  UNL1        0.0024
     18 C         138.4636  148.8874  156.8575 C.ar    1  UNL1        0.0149
     19 C         138.6846  152.2152  154.7064 C.2     1  UNL1        0.0729
     20 O         138.8230  153.3019  155.7312 O.co2   1  UNL1       -0.5446
     21 O         138.4046  152.5655  153.2750 O.co2   1  UNL1       -0.5446
     22 C         142.3734  141.0349  164.1555 C.ar    1  UNL1        0.1411
     23 C         142.7605  141.1055  162.7080 C.ar    1  UNL1        0.0342
     24 C         141.7676  141.5791  161.6883 C.ar    1  UNL1       -0.0001
     25 C         140.3875  141.9822  162.1161 C.ar    1  UNL1        0.0342
     26 C         140.0004  141.9117  163.5636 C.ar    1  UNL1        0.1411
     27 C         140.9934  141.4380  164.5833 C.ar    1  UNL1        0.0679
     28 C         140.6063  141.3675  166.0307 C.ar    1  UNL1        0.0060
     29 C         139.8858  140.1614  166.5565 C.ar    1  UNL1        0.0025
     30 C         139.4987  140.0909  168.0040 C.ar    1  UNL1        0.0296
     31 C         139.8321  141.2264  168.9257 C.ar    1  UNL1        0.1401
     32 F         139.4451  141.1558  170.3731 F       1  UNL1       -0.2042
     33 C         140.5526  142.4324  168.3999 C.ar    1  UNL1        0.0296
     34 C         140.9397  142.5029  166.9525 C.ar    1  UNL1        0.0025
     35 O         143.3663  140.5613  165.1752 O.3     1  UNL1       -0.4754
     36 C         142.4818  138.1322  164.9160 C.3     1  UNL1        0.0512
     37 C         143.4617  139.1016  165.5075 C.3     1  UNL1        0.2055
     38 O         138.6204  142.3147  163.9914 O.3     1  UNL1       -0.4754
     39 C         138.2236  143.7613  163.9780 C.3     1  UNL1        0.2055
     40 C         138.6823  144.6750  165.0756 C.3     1  UNL1        0.0512
@<TRIPOS>UNITY_ATOM_ATTR
20 1
charge -1
@<TRIPOS>BOND
     1    36    37    1
     2    37    35    1
     3    35    22    1
     4    22    23   ar
     5    23    24   ar
     6    24     1    1
     7     1     2    1
     8     2     3    1
     9     3     4    1
    10     4     5    1
    11     5     6    1
    12     6     7    1
    13     5     8    1
    14     8     9    1
    15     9    10    2
    16     9    11   am
    17    11    13    1
    18    13    14   ar
    19    14    15   ar
    20    15    16   ar
    21    16    19    1
    22    19    20   ar
    23    19    21   ar
    24    16    17   ar
    25    17    18   ar
    26    11    12    1
    27    24    25   ar
    28    25    26   ar
    29    26    38    1
    30    38    39    1
    31    39    40    1
    32    26    27   ar
    33    27    28    1
    34    28    29   ar
    35    29    30   ar
    36    30    31   ar
    37    31    32    1
    38    31    33   ar
    39    33    34   ar
    40    27    22   ar
    41    34    28   ar
    42     7     2    1
    43    18    13   ar
    44    12     5    1
@<TRIPOS>MOLECULE
*****
 40 44 0 0 0
SMALL
GASTEIGER

@<TRIPOS>ATOM
      1 C         139.2672  141.1983  159.9630 C.3     1  UNL1        0.0993
      2 N         140.1362  140.3108  159.1219 N.3     1  UNL1       -0.2690
      3 C         139.6969  138.9116  158.8068 C.3     1  UNL1        0.0724
      4 C         140.5658  138.0242  157.9658 C.3     1  UNL1        0.0195
      5 C         141.8740  138.5360  157.4398 C.3     1  UNL1        0.0300
      6 C         142.3134  139.9351  157.7549 C.3     1  UNL1        0.0195
      7 C         141.4444  140.8225  158.5960 C.3     1  UNL1        0.0724
      8 C         143.2011  138.9069  156.8470 C.3     1  UNL1        0.0873
      9 C         143.7157  137.7219  156.0846 C.2     1  UNL1        0.2294
     10 O         145.0117  137.6524  155.3327 O.2     1  UNL1       -0.2745
     11 N         142.7067  136.6186  156.2064 N.am    1  UNL1       -0.2586
     12 C         141.5685  137.1217  157.0439 C.3     1  UNL1        0.0986
     13 C         142.8166  135.2522  155.5975 C.ar    1  UNL1        0.0538
     14 C         142.1220  134.9499  154.3029 C.ar    1  UNL1        0.0149
     15 C         142.2319  133.5835  153.6940 C.ar    1  UNL1        0.0024
     16 C         143.0365  132.5193  154.3798 C.ar    1  UNL1        0.0141
     17 C         143.7312  132.8216  155.6745 C.ar    1  UNL1        0.0024
     18 C         143.6212  134.1881  156.2833 C.ar    1  UNL1        0.0149
     19 C         143.1464  131.1528  153.7709 C.2     1  UNL1        0.0729
     20 O         143.7722  130.9826  152.4182 O.co2   1  UNL1       -0.5446
     21 O         142.6306  129.9567  154.5146 O.co2   1  UNL1       -0.5446
     22 C         140.6351  140.3758  163.5965 C.ar    1  UNL1        0.1411
     23 C         140.5024  140.3940  162.1024 C.ar    1  UNL1        0.0342
     24 C         139.4000  141.1801  161.4570 C.ar    1  UNL1       -0.0001
     25 C         138.4302  141.9479  162.3055 C.ar    1  UNL1        0.0342
     26 C         138.5630  141.9297  163.7995 C.ar    1  UNL1        0.1411
     27 C         139.6654  141.1436  164.4450 C.ar    1  UNL1        0.0679
     28 C         139.7982  141.1254  165.9390 C.ar    1  UNL1        0.0060
     29 C         139.2216  139.9883  166.7293 C.ar    1  UNL1        0.0025
     30 C         139.3544  139.9701  168.2234 C.ar    1  UNL1        0.0296
     31 C         140.0637  141.0889  168.9270 C.ar    1  UNL1        0.1401
     32 F         140.1964  141.0707  170.4210 F       1  UNL1       -0.2042
     33 C         140.6403  142.2260  168.1366 C.ar    1  UNL1        0.0296
     34 C         140.5075  142.2442  166.6426 C.ar    1  UNL1        0.0025
     35 O         141.7376  139.5897  164.2420 O.3     1  UNL1       -0.4754
     36 C         141.1582  137.0603  164.3706 C.3     1  UNL1        0.0512
     37 C         141.9970  138.1743  163.8181 C.3     1  UNL1        0.2055
     38 O         137.5932  142.6976  164.6480 O.3     1  UNL1       -0.4754
     39 C         137.7616  144.1773  164.8272 C.3     1  UNL1        0.2055
     40 C         139.0703  144.8293  164.4922 C.3     1  UNL1        0.0512
@<TRIPOS>UNITY_ATOM_ATTR
20 1
charge -1
@<TRIPOS>BOND
     1    36    37    1
     2    37    35    1
     3    35    22    1
     4    22    23   ar
     5    23    24   ar
     6    24     1    1
     7     1     2    1
     8     2     3    1
     9     3     4    1
    10     4     5    1
    11     5     6    1
    12     6     7    1
    13     5     8    1
    14     8     9    1
    15     9    10    2
    16     9    11   am
    17    11    13    1
    18    13    14   ar
    19    14    15   ar
    20    15    16   ar
    21    16    19    1
    22    19    20   ar
    23    19    21   ar
    24    16    17   ar
    25    17    18   ar
    26    11    12    1
    27    24    25   ar
    28    25    26   ar
    29    26    38    1
    30    38    39    1
    31    39    40    1
    32    26    27   ar
    33    27    28    1
    34    28    29   ar
    35    29    30   ar
    36    30    31   ar
    37    31    32    1
    38    31    33   ar
    39    33    34   ar
    40    27    22   ar
    41    34    28   ar
    42     7     2    1
    43    18    13   ar
    44    12     5    1
@<TRIPOS>MOLECULE
*****
 40 44 0 0 0
SMALL
GASTEIGER

@<TRIPOS>ATOM
      1 C         137.9489  140.6591  158.6385 C.3     1  UNL1        0.0993
      2 N         138.5142  140.4470  160.0117 N.3     1  UNL1       -0.2690
      3 C         138.0796  141.3272  161.1458 C.3     1  UNL1        0.0724
      4 C         138.6449  141.1150  162.5189 C.3     1  UNL1        0.0195
      5 C         139.6447  140.0226  162.7578 C.3     1  UNL1        0.0300
      6 C         140.0793  139.1424  161.6236 C.3     1  UNL1        0.0195
      7 C         139.5140  139.3546  160.2506 C.3     1  UNL1        0.0724
      8 C         140.6470  138.9765  163.1467 C.3     1  UNL1        0.0873
      9 C         140.9287  139.1266  164.6124 C.2     1  UNL1        0.2294
     10 O         141.8728  138.2855  165.4195 O.2     1  UNL1       -0.2745
     11 N         140.1006  140.2655  165.1293 N.am    1  UNL1       -0.2586
     12 C         139.3071  140.8193  163.9832 C.3     1  UNL1        0.0986
     13 C         140.0712  140.7633  166.5439 C.ar    1  UNL1        0.0538
     14 C         139.5238  139.8911  167.6347 C.ar    1  UNL1        0.0149
     15 C         139.4943  140.3889  169.0494 C.ar    1  UNL1        0.0024
     16 C         140.0123  141.7589  169.3734 C.ar    1  UNL1        0.0141
     17 C         140.5597  142.6311  168.2826 C.ar    1  UNL1        0.0024
     18 C         140.5891  142.1332  166.8679 C.ar    1  UNL1        0.0149
     19 C         139.9829  142.2567  170.7881 C.2     1  UNL1        0.0729
     20 O         139.2535  143.5242  171.1221 O.co2   1  UNL1       -0.5446
     21 O         140.6828  141.4870  171.8687 O.co2   1  UNL1       -0.5446
     22 C         137.7308  143.6923  156.0885 C.ar    1  UNL1        0.1411
     23 C         137.3543  142.4711  156.8741 C.ar    1  UNL1        0.0342
     24 C         138.3253  141.8802  157.8529 C.ar    1  UNL1       -0.0001
     25 C         139.6727  142.5104  158.0461 C.ar    1  UNL1        0.0342
     26 C         140.0492  143.7315  157.2605 C.ar    1  UNL1        0.1411
     27 C         139.0782  144.3224  156.2817 C.ar    1  UNL1        0.0679
     28 C         139.4546  145.5435  155.4961 C.ar    1  UNL1        0.0060
     29 C         140.3396  145.4171  154.2916 C.ar    1  UNL1        0.0025
     30 C         140.7160  146.6383  153.5060 C.ar    1  UNL1        0.0296
     31 C         140.2075  147.9858  153.9249 C.ar    1  UNL1        0.1401
     32 F         140.5839  149.2069  153.1393 F       1  UNL1       -0.2042
     33 C         139.3225  148.1122  155.1294 C.ar    1  UNL1        0.0296
     34 C         138.9461  146.8911  155.9150 C.ar    1  UNL1        0.0025
     35 O         136.7598  144.2832  155.1097 O.3     1  UNL1       -0.4754
     36 C         136.2855  142.4488  153.3320 C.3     1  UNL1        0.0512
     37 C         136.7641  143.8270  153.6807 C.3     1  UNL1        0.2055
     38 O         141.3966  144.3617  157.4537 O.3     1  UNL1       -0.4754
     39 C         141.5618  145.4977  158.4192 C.3     1  UNL1        0.2055
     40 C         141.1029  145.3477  159.8394 C.3     1  UNL1        0.0512
@<TRIPOS>UNITY_ATOM_ATTR
20 1
charge -1
@<TRIPOS>BOND
     1    36    37    1
     2    37    35    1
     3    35    22    1
     4    22    23   ar
     5    23    24   ar
     6    24     1    1
     7     1     2    1
     8     2     3    1
     9     3     4    1
    10     4     5    1
    11     5     6    1
    12     6     7    1
    13     5     8    1
    14     8     9    1
    15     9    10    2
    16     9    11   am
    17    11    13    1
    18    13    14   ar
    19    14    15   ar
    20    15    16   ar
    21    16    19    1
    22    19    20   ar
    23    19    21   ar
    24    16    17   ar
    25    17    18   ar
    26    11    12    1
    27    24    25   ar
    28    25    26   ar
    29    26    38    1
    30    38    39    1
    31    39    40    1
    32    26    27   ar
    33    27    28    1
    34    28    29   ar
    35    29    30   ar
    36    30    31   ar
    37    31    32    1
    38    31    33   ar
    39    33    34   ar
    40    27    22   ar
    41    34    28   ar
    42     7     2    1
    43    18    13   ar
    44    12     5    1
@<TRIPOS>MOLECULE
*****
 40 44 0 0 0
SMALL
GASTEIGER

@<TRIPOS>ATOM
      1 C         142.0078  139.4425  157.9691 C.3     1  UNL1        0.0993
      2 N         142.1163  139.3684  159.4634 N.3     1  UNL1       -0.2690
      3 C         140.9868  139.8545  160.3223 C.3     1  UNL1        0.0724
      4 C         141.0953  139.7804  161.8165 C.3     1  UNL1        0.0195
      5 C         142.3332  139.2201  162.4518 C.3     1  UNL1        0.0300
      6 C         143.4627  138.7340  161.5928 C.3     1  UNL1        0.0195
      7 C         143.3543  138.8081  160.0986 C.3     1  UNL1        0.0724
      8 C         143.5028  138.6878  163.2255 C.3     1  UNL1        0.0873
      9 C         143.1836  138.8040  164.6867 C.2     1  UNL1        0.2294
     10 O         144.0748  138.3890  165.8196 O.2     1  UNL1       -0.2745
     11 N         141.8167  139.4082  164.8158 N.am    1  UNL1       -0.2586
     12 C         141.2911  139.6653  163.4346 C.3     1  UNL1        0.0986
     13 C         141.1010  139.7033  166.1005 C.ar    1  UNL1        0.0538
     14 C         141.8187  140.4062  167.2145 C.ar    1  UNL1        0.0149
     15 C         141.1030  140.7014  168.4993 C.ar    1  UNL1        0.0024
     16 C         139.6696  140.2936  168.6701 C.ar    1  UNL1        0.0141
     17 C         138.9519  139.5906  167.5562 C.ar    1  UNL1        0.0024
     18 C         139.6677  139.2955  166.2714 C.ar    1  UNL1        0.0149
     19 C         138.9539  140.5887  169.9549 C.2     1  UNL1        0.0729
     20 O         137.9220  139.6324  170.4754 O.co2   1  UNL1       -0.5446
     21 O         139.2701  141.8401  170.7192 O.co2   1  UNL1       -0.5446
     22 C         140.6003  136.6951  155.4748 C.ar    1  UNL1        0.1411
     23 C         140.7072  137.9547  156.2824 C.ar    1  UNL1        0.0342
     24 C         141.9010  138.1830  157.1615 C.ar    1  UNL1       -0.0001
     25 C         142.9879  137.1517  157.2329 C.ar    1  UNL1        0.0342
     26 C         142.8811  135.8922  156.4253 C.ar    1  UNL1        0.1411
     27 C         141.6873  135.6639  155.5463 C.ar    1  UNL1        0.0679
     28 C         141.5804  134.4045  154.7387 C.ar    1  UNL1        0.0060
     29 C         141.9097  134.4216  153.2754 C.ar    1  UNL1        0.0025
     30 C         141.8029  133.1620  152.4678 C.ar    1  UNL1        0.0296
     31 C         141.3666  131.8854  153.1235 C.ar    1  UNL1        0.1401
     32 F         141.2598  130.6259  152.3159 F       1  UNL1       -0.2042
     33 C         141.0373  131.8683  154.5868 C.ar    1  UNL1        0.0296
     34 C         141.1441  133.1278  155.3944 C.ar    1  UNL1        0.0025
     35 O         139.4065  136.4669  154.5958 O.3     1  UNL1       -0.4754
     36 C         140.3271  137.7231  152.5162 C.3     1  UNL1        0.0512
     37 C         139.1765  137.3437  153.4006 C.3     1  UNL1        0.2055
     38 O         143.9680  134.8610  156.4968 O.3     1  UNL1       -0.4754
     39 C         143.9542  133.8311  157.5873 C.3     1  UNL1        0.2055
     40 C         144.3839  132.4240  157.2955 C.3     1  UNL1        0.0512
@<TRIPOS>UNITY_ATOM_ATTR
20 1
charge -1
@<TRIPOS>BOND
     1    36    37    1
     2    37    35    1
     3    35    22    1
     4    22    23   ar
     5    23    24   ar
     6    24     1    1
     7     1     2    1
     8     2     3    1
     9     3     4    1
    10     4     5    1
    11     5     6    1
    12     6     7    1
    13     5     8    1
    14     8     9    1
    15     9    10    2
    16     9    11   am
    17    11    13    1
    18    13    14   ar
    19    14    15   ar
    20    15    16   ar
    21    16    19    1
    22    19    20   ar
    23    19    21   ar
    24    16    17   ar
    25    17    18   ar
    26    11    12    1
    27    24    25   ar
    28    25    26   ar
    29    26    38    1
    30    38    39    1
    31    39    40    1
    32    26    27   ar
    33    27    28    1
    34    28    29   ar
    35    29    30   ar
    36    30    31   ar
    37    31    32    1
    38    31    33   ar
    39    33    34   ar
    40    27    22   ar
    41    34    28   ar
    42     7     2    1
    43    18    13   ar
    44    12     5    1
@<TRIPOS>MOLECULE
*****
 40 44 0 0 0
SMALL
GASTEIGER

@<TRIPOS>ATOM
      1 C         139.3483  141.2311  159.9730 C.3     1  UNL1        0.0993
      2 N         140.2006  140.3323  159.1268 N.3     1  UNL1       -0.2690
      3 C         139.7338  138.9445  158.8013 C.3     1  UNL1        0.0724
      4 C         140.5861  138.0458  157.9552 C.3     1  UNL1        0.0195
      5 C         141.9050  138.5350  157.4345 C.3     1  UNL1        0.0300
      6 C         142.3718  139.9228  157.7600 C.3     1  UNL1        0.0195
      7 C         141.5195  140.8215  158.6062 C.3     1  UNL1        0.0724
      8 C         143.2401  138.8834  156.8460 C.3     1  UNL1        0.0873
      9 C         143.7321  137.6938  156.0761 C.2     1  UNL1        0.2294
     10 O         145.0275  137.6037  155.3253 O.2     1  UNL1       -0.2745
     11 N         142.7010  136.6100  156.1887 N.am    1  UNL1       -0.2586
     12 C         141.5719  137.1299  157.0283 C.3     1  UNL1        0.0986
     13 C         142.7845  135.2460  155.5704 C.ar    1  UNL1        0.0538
     14 C         142.1269  134.9801  154.2488 C.ar    1  UNL1        0.0149
     15 C         142.2103  133.6160  153.6305 C.ar    1  UNL1        0.0024
     16 C         142.9515  132.5178  154.3338 C.ar    1  UNL1        0.0141
     17 C         143.6092  132.7837  155.6555 C.ar    1  UNL1        0.0024
     18 C         143.5257  134.1478  156.2737 C.ar    1  UNL1        0.0149
     19 C         143.0350  131.1537  153.7155 C.2     1  UNL1        0.0729
     20 O         144.3574  130.4516  153.6234 O.co2   1  UNL1       -0.5446
     21 O         141.7962  130.4917  153.1892 O.co2   1  UNL1       -0.5446
     22 C         138.6340  141.9200  163.8155 C.ar    1  UNL1        0.1411
     23 C         138.4996  141.9472  162.3218 C.ar    1  UNL1        0.0342
     24 C         139.4827  141.2040  161.4667 C.ar    1  UNL1       -0.0001
     25 C         140.6002  140.4337  162.1053 C.ar    1  UNL1        0.0342
     26 C         140.7346  140.4066  163.5990 C.ar    1  UNL1        0.1411
     27 C         139.7515  141.1497  164.4541 C.ar    1  UNL1        0.0679
     28 C         139.8859  141.1226  165.9478 C.ar    1  UNL1        0.0060
     29 C         140.6329  142.2153  166.6536 C.ar    1  UNL1        0.0025
     30 C         140.7672  142.1881  168.1474 C.ar    1  UNL1        0.0296
     31 C         140.1546  141.0684  168.9353 C.ar    1  UNL1        0.1401
     32 F         140.2890  141.0413  170.4290 F       1  UNL1       -0.2042
     33 C         139.4076  139.9757  168.2295 C.ar    1  UNL1        0.0296
     34 C         139.2733  140.0028  166.7358 C.ar    1  UNL1        0.0025
     35 O         137.6509  142.6632  164.6706 O.3     1  UNL1       -0.4754
     36 C         139.0756  144.8357  164.6850 C.3     1  UNL1        0.0512
     37 C         137.7436  144.1551  164.7963 C.3     1  UNL1        0.2055
     38 O         141.8521  139.6363  164.2376 O.3     1  UNL1       -0.4754
     39 C         141.6947  138.1686  164.5044 C.3     1  UNL1        0.2055
     40 C         140.3865  137.4911  164.2223 C.3     1  UNL1        0.0512
@<TRIPOS>UNITY_ATOM_ATTR
20 1
charge -1
@<TRIPOS>BOND
     1    36    37    1
     2    37    35    1
     3    35    22    1
     4    22    23   ar
     5    23    24   ar
     6    24     1    1
     7     1     2    1
     8     2     3    1
     9     3     4    1
    10     4     5    1
    11     5     6    1
    12     6     7    1
    13     5     8    1
    14     8     9    1
    15     9    10    2
    16     9    11   am
    17    11    13    1
    18    13    14   ar
    19    14    15   ar
    20    15    16   ar
    21    16    19    1
    22    19    20   ar
    23    19    21   ar
    24    16    17   ar
    25    17    18   ar
    26    11    12    1
    27    24    25   ar
    28    25    26   ar
    29    26    38    1
    30    38    39    1
    31    39    40    1
    32    26    27   ar
    33    27    28    1
    34    28    29   ar
    35    29    30   ar
    36    30    31   ar
    37    31    32    1
    38    31    33   ar
    39    33    34   ar
    40    27    22   ar
    41    34    28   ar
    42     7     2    1
    43    18    13   ar
    44    12     5    1
@<TRIPOS>MOLECULE
*****
 40 44 0 0 0
SMALL
GASTEIGER

@<TRIPOS>ATOM
      1 C         139.3319  141.3804  160.5977 C.3     1  UNL1        0.0993
      2 N         140.1123  140.5048  159.6625 N.3     1  UNL1       -0.2690
      3 C         139.4826  139.2692  159.0909 C.3     1  UNL1        0.0724
      4 C         140.2630  138.3938  158.1557 C.3     1  UNL1        0.0195
      5 C         141.6730  138.7540  157.7922 C.3     1  UNL1        0.0300
      6 C         142.3026  139.9896  158.3638 C.3     1  UNL1        0.0195
      7 C         141.5223  140.8650  159.2990 C.3     1  UNL1        0.0724
      8 C         143.0844  138.9847  157.3397 C.3     1  UNL1        0.0873
      9 C         143.4627  137.8673  156.4131 C.2     1  UNL1        0.2294
     10 O         144.7862  137.7006  155.7272 O.2     1  UNL1       -0.2745
     11 N         142.2851  136.9460  156.2930 N.am    1  UNL1       -0.2586
     12 C         141.1790  137.4939  157.1453 C.3     1  UNL1        0.0986
     13 C         142.2242  135.6963  155.4658 C.ar    1  UNL1        0.0538
     14 C         142.0604  135.7890  153.9777 C.ar    1  UNL1        0.0149
     15 C         141.9996  134.5392  153.1505 C.ar    1  UNL1        0.0024
     16 C         142.1025  133.1966  153.8115 C.ar    1  UNL1        0.0141
     17 C         142.2664  133.1038  155.2997 C.ar    1  UNL1        0.0024
     18 C         142.3272  134.3537  156.1268 C.ar    1  UNL1        0.0149
     19 C         142.0417  131.9467  152.9843 C.2     1  UNL1        0.0729
     20 O         140.7202  131.2910  152.7122 O.co2   1  UNL1       -0.5446
     21 O         143.3022  131.3527  152.4291 O.co2   1  UNL1       -0.5446
     22 C         140.6612  143.1840  163.8734 C.ar    1  UNL1        0.1411
     23 C         140.1804  142.9710  162.4686 C.ar    1  UNL1        0.0342
     24 C         139.8127  141.5934  162.0025 C.ar    1  UNL1       -0.0001
     25 C         139.9260  140.4289  162.9412 C.ar    1  UNL1        0.0342
     26 C         140.4068  140.6420  164.3460 C.ar    1  UNL1        0.1411
     27 C         140.7745  142.0195  164.8120 C.ar    1  UNL1        0.0679
     28 C         141.2553  142.2326  166.2168 C.ar    1  UNL1        0.0060
     29 C         142.7107  142.0740  166.5435 C.ar    1  UNL1        0.0025
     30 C         143.1915  142.2871  167.9484 C.ar    1  UNL1        0.0296
     31 C         142.2170  142.6587  169.0264 C.ar    1  UNL1        0.1401
     32 F         142.6978  142.8718  170.4311 F       1  UNL1       -0.2042
     33 C         140.7616  142.8173  168.6996 C.ar    1  UNL1        0.0296
     34 C         140.2808  142.6043  167.2949 C.ar    1  UNL1        0.0025
     35 O         141.0289  144.5615  164.3395 O.3     1  UNL1       -0.4754
     36 C         143.5857  144.5962  163.8794 C.3     1  UNL1        0.0512
     37 C         142.2381  145.2465  163.7748 C.3     1  UNL1        0.2055
     38 O         140.5200  139.4775  165.2846 O.3     1  UNL1       -0.4754
     39 C         139.3438  138.5723  165.5021 C.3     1  UNL1        0.2055
     40 C         138.1854  139.0348  166.3352 C.3     1  UNL1        0.0512
@<TRIPOS>UNITY_ATOM_ATTR
20 1
charge -1
@<TRIPOS>BOND
     1    36    37    1
     2    37    35    1
     3    35    22    1
     4    22    23   ar
     5    23    24   ar
     6    24     1    1
     7     1     2    1
     8     2     3    1
     9     3     4    1
    10     4     5    1
    11     5     6    1
    12     6     7    1
    13     5     8    1
    14     8     9    1
    15     9    10    2
    16     9    11   am
    17    11    13    1
    18    13    14   ar
    19    14    15   ar
    20    15    16   ar
    21    16    19    1
    22    19    20   ar
    23    19    21   ar
    24    16    17   ar
    25    17    18   ar
    26    11    12    1
    27    24    25   ar
    28    25    26   ar
    29    26    38    1
    30    38    39    1
    31    39    40    1
    32    26    27   ar
    33    27    28    1
    34    28    29   ar
    35    29    30   ar
    36    30    31   ar
    37    31    32    1
    38    31    33   ar
    39    33    34   ar
    40    27    22   ar
    41    34    28   ar
    42     7     2    1
    43    18    13   ar
    44    12     5    1
@<TRIPOS>MOLECULE
*****
 40 44 0 0 0
SMALL
GASTEIGER

@<TRIPOS>ATOM
      1 C         139.3535  141.4047  160.4773 C.3     1  UNL1        0.0993
      2 N         140.1251  140.5043  159.5586 N.3     1  UNL1       -0.2690
      3 C         139.4755  139.2771  158.9913 C.3     1  UNL1        0.0724
      4 C         140.2471  138.3768  158.0726 C.3     1  UNL1        0.0195
      5 C         141.6683  138.7037  157.7213 C.3     1  UNL1        0.0300
      6 C         142.3178  139.9310  158.2886 C.3     1  UNL1        0.0195
      7 C         141.5462  140.8313  159.2072 C.3     1  UNL1        0.0724
      8 C         143.0890  138.9005  157.2821 C.3     1  UNL1        0.0873
      9 C         143.4535  137.7668  156.3698 C.2     1  UNL1        0.2294
     10 O         144.7804  137.5659  155.6999 O.2     1  UNL1       -0.2745
     11 N         142.2579  136.8695  156.2452 N.am    1  UNL1       -0.2586
     12 C         141.1546  137.4485  157.0803 C.3     1  UNL1        0.0986
     13 C         142.1794  135.6137  155.4287 C.ar    1  UNL1        0.0538
     14 C         142.2406  134.2754  156.1033 C.ar    1  UNL1        0.0149
     15 C         142.1622  133.0195  155.2868 C.ar    1  UNL1        0.0024
     16 C         142.0225  133.1020  153.7956 C.ar    1  UNL1        0.0141
     17 C         141.9613  134.4403  153.1209 C.ar    1  UNL1        0.0024
     18 C         142.0398  135.6961  153.9375 C.ar    1  UNL1        0.0149
     19 C         141.9440  131.8461  152.9791 C.2     1  UNL1        0.0729
     20 O         140.7029  131.0044  153.0151 O.co2   1  UNL1       -0.5446
     21 O         143.1066  131.4320  152.1265 O.co2   1  UNL1       -0.5446
     22 C         140.4056  140.6369  164.2261 C.ar    1  UNL1        0.1411
     23 C         139.9441  140.4333  162.8134 C.ar    1  UNL1        0.0342
     24 C         139.8149  141.6083  161.8900 C.ar    1  UNL1       -0.0001
     25 C         140.1472  142.9868  162.3792 C.ar    1  UNL1        0.0342
     26 C         140.6086  143.1904  163.7918 C.ar    1  UNL1        0.1411
     27 C         140.7378  142.0154  164.7153 C.ar    1  UNL1        0.0679
     28 C         141.1993  142.2190  166.1279 C.ar    1  UNL1        0.0060
     29 C         142.6476  142.0432  166.4765 C.ar    1  UNL1        0.0025
     30 C         143.1090  142.2468  167.8893 C.ar    1  UNL1        0.0296
     31 C         142.1222  142.6260  168.9533 C.ar    1  UNL1        0.1401
     32 F         142.5836  142.8296  170.3659 F       1  UNL1       -0.2042
     33 C         140.6738  142.8018  168.6047 C.ar    1  UNL1        0.0296
     34 C         140.2124  142.5982  167.1921 C.ar    1  UNL1        0.0025
     35 O         140.5348  139.4620  165.1496 O.3     1  UNL1       -0.4754
     36 C         138.3251  139.0282  166.4455 C.3     1  UNL1        0.0512
     37 C         139.3432  138.5957  165.4324 C.3     1  UNL1        0.2055
     38 O         140.9409  144.5688  164.2810 O.3     1  UNL1       -0.4754
     39 C         142.1583  145.2755  163.7626 C.3     1  UNL1        0.2055
     40 C         143.5047  144.6220  163.8634 C.3     1  UNL1        0.0512
@<TRIPOS>UNITY_ATOM_ATTR
20 1
charge -1
@<TRIPOS>BOND
     1    36    37    1
     2    37    35    1
     3    35    22    1
     4    22    23   ar
     5    23    24   ar
     6    24     1    1
     7     1     2    1
     8     2     3    1
     9     3     4    1
    10     4     5    1
    11     5     6    1
    12     6     7    1
    13     5     8    1
    14     8     9    1
    15     9    10    2
    16     9    11   am
    17    11    13    1
    18    13    14   ar
    19    14    15   ar
    20    15    16   ar
    21    16    19    1
    22    19    20   ar
    23    19    21   ar
    24    16    17   ar
    25    17    18   ar
    26    11    12    1
    27    24    25   ar
    28    25    26   ar
    29    26    38    1
    30    38    39    1
    31    39    40    1
    32    26    27   ar
    33    27    28    1
    34    28    29   ar
    35    29    30   ar
    36    30    31   ar
    37    31    32    1
    38    31    33   ar
    39    33    34   ar
    40    27    22   ar
    41    34    28   ar
    42     7     2    1
    43    18    13   ar
    44    12     5    1
@<TRIPOS>MOLECULE
*****
 40 44 0 0 0
SMALL
GASTEIGER

@<TRIPOS>ATOM
      1 C         143.4155  141.4117  158.6692 C.3     1  UNL1        0.0993
      2 N         142.4603  142.3865  158.0467 N.3     1  UNL1       -0.2690
      3 C         142.7734  143.8534  158.0562 C.3     1  UNL1        0.0724
      4 C         141.8182  144.8282  157.4337 C.3     1  UNL1        0.0195
      5 C         140.5500  144.3360  156.8017 C.3     1  UNL1        0.0300
      6 C         140.2369  142.8691  156.7922 C.3     1  UNL1        0.0195
      7 C         141.1921  141.8944  157.4147 C.3     1  UNL1        0.0724
      8 C         139.2500  143.9939  156.1362 C.3     1  UNL1        0.0873
      9 C         138.6236  145.2705  155.6586 C.2     1  UNL1        0.2294
     10 O         137.3143  145.3943  154.9373 O.2     1  UNL1       -0.2745
     11 N         139.5366  146.4016  156.0290 N.am    1  UNL1       -0.2586
     12 C         140.7271  145.8241  156.7354 C.3     1  UNL1        0.0986
     13 C         139.3005  147.8550  155.7431 C.ar    1  UNL1        0.0538
     14 C         139.8128  148.4620  154.4706 C.ar    1  UNL1        0.0149
     15 C         139.5767  149.9154  154.1847 C.ar    1  UNL1        0.0024
     16 C         138.8283  150.7619  155.1712 C.ar    1  UNL1        0.0141
     17 C         138.3160  150.1550  156.4438 C.ar    1  UNL1        0.0024
     18 C         138.5521  148.7015  156.7296 C.ar    1  UNL1        0.0149
     19 C         138.5922  152.2154  154.8853 C.2     1  UNL1        0.0729
     20 O         138.1543  152.6493  153.5178 O.co2   1  UNL1       -0.5446
     21 O         138.7938  153.2349  155.9669 O.co2   1  UNL1       -0.5446
     22 C         142.2037  139.6391  162.0068 C.ar    1  UNL1        0.1411
     23 C         142.3308  139.9900  160.5539 C.ar    1  UNL1        0.0342
     24 C         143.2883  141.0608  160.1220 C.ar    1  UNL1       -0.0001
     25 C         144.1188  141.7807  161.1429 C.ar    1  UNL1        0.0342
     26 C         143.9916  141.4297  162.5957 C.ar    1  UNL1        0.1411
     27 C         143.0341  140.3589  163.0276 C.ar    1  UNL1        0.0679
     28 C         142.9070  140.0080  164.4804 C.ar    1  UNL1        0.0060
     29 C         142.0210  140.8240  165.3744 C.ar    1  UNL1        0.0025
     30 C         141.8939  140.4730  166.8272 C.ar    1  UNL1        0.0296
     31 C         142.6527  139.3061  167.3861 C.ar    1  UNL1        0.1401
     32 F         142.5256  138.9552  168.8389 F       1  UNL1       -0.2042
     33 C         143.5387  138.4901  166.4921 C.ar    1  UNL1        0.0296
     34 C         143.6658  138.8410  165.0393 C.ar    1  UNL1        0.0025
     35 O         141.2462  138.5683  162.4387 O.3     1  UNL1       -0.4754
     36 C         139.1617  139.9494  163.1440 C.3     1  UNL1        0.0512
     37 C         139.7677  138.8137  162.3741 C.3     1  UNL1        0.2055
     38 O         144.8220  142.1496  163.6166 O.3     1  UNL1       -0.4754
     39 C         144.3223  143.4266  164.2246 C.3     1  UNL1        0.2055
     40 C         143.9325  144.5752  163.3423 C.3     1  UNL1        0.0512
@<TRIPOS>UNITY_ATOM_ATTR
20 1
charge -1
@<TRIPOS>BOND
     1    36    37    1
     2    37    35    1
     3    35    22    1
     4    22    23   ar
     5    23    24   ar
     6    24     1    1
     7     1     2    1
     8     2     3    1
     9     3     4    1
    10     4     5    1
    11     5     6    1
    12     6     7    1
    13     5     8    1
    14     8     9    1
    15     9    10    2
    16     9    11   am
    17    11    13    1
    18    13    14   ar
    19    14    15   ar
    20    15    16   ar
    21    16    19    1
    22    19    20   ar
    23    19    21   ar
    24    16    17   ar
    25    17    18   ar
    26    11    12    1
    27    24    25   ar
    28    25    26   ar
    29    26    38    1
    30    38    39    1
    31    39    40    1
    32    26    27   ar
    33    27    28    1
    34    28    29   ar
    35    29    30   ar
    36    30    31   ar
    37    31    32    1
    38    31    33   ar
    39    33    34   ar
    40    27    22   ar
    41    34    28   ar
    42     7     2    1
    43    18    13   ar
    44    12     5    1
