@<TRIPOS>MOLECULE
*****
 34 38 0 0 0
SMALL
GASTEIGER

@<TRIPOS>ATOM
      1 N         141.3392  138.3525  158.1428 N.3     1  UNL1       -0.2688
      2 C         139.9130  138.3884  158.6061 C.3     1  UNL1        0.0741
      3 C         139.5908  138.8073  160.0100 C.3     1  UNL1        0.0369
      4 C         140.6948  139.1902  160.9505 C.3     1  UNL1        0.0747
      5 C         142.1210  139.1542  160.4872 C.3     1  UNL1        0.0369
      6 C         142.4432  138.7354  159.0834 C.3     1  UNL1        0.0741
      7 N         140.3726  139.6090  162.3543 N.am    1  UNL1       -0.2999
      8 C         140.2745  138.5791  163.4405 C.2     1  UNL1        0.2806
      9 O         140.4987  137.1304  163.1228 O.2     1  UNL1       -0.2668
     10 H         140.2255  140.5598  162.5628 H       1  UNL1        0.1498
     11 C         139.9523  138.9980  164.8443 C.ar    1  UNL1        0.2014
     12 C         138.7721  138.4018  165.5527 C.ar    1  UNL1        0.0843
     13 C         138.4499  138.8207  166.9565 C.ar    1  UNL1        0.2018
     14 O         137.2697  138.2245  167.6648 O.2     1  UNL1       -0.2864
     15 C         139.3078  139.8357  167.6520 C.ar    1  UNL1        0.0737
     16 C         138.9855  140.2546  169.0558 C.ar    1  UNL1        0.0085
     17 C         139.8434  141.2696  169.7512 C.ar    1  UNL1        0.0299
     18 C         141.0236  141.8658  169.0429 C.ar    1  UNL1        0.1432
     19 F         141.8815  142.8808  169.7384 F       1  UNL1       -0.2041
     20 C         141.3459  141.4469  167.6391 C.ar    1  UNL1        0.0672
     21 C         140.4880  140.4319  166.9436 C.ar    1  UNL1        0.1508
     22 O         140.8102  140.0130  165.5398 O.2     1  UNL1       -0.4486
     23 C         141.6614  137.9336  156.7390 C.3     1  UNL1        0.0992
     24 C         143.9558  131.9761  156.7093 C.ar    1  UNL1        0.2057
     25 N         142.8570  132.1708  155.7069 N.ar    1  UNL1       -0.2121
     26 C         142.3938  133.5946  155.7975 C.ar    1  UNL1        0.1185
     27 C         141.3371  134.3556  155.0530 C.ar    1  UNL1        0.0220
     28 C         141.0930  135.8020  155.3668 C.ar    1  UNL1       -0.0012
     29 C         141.9056  136.4873  156.4252 C.ar    1  UNL1       -0.0030
     30 C         142.9622  135.7263  157.1696 C.ar    1  UNL1        0.0362
     31 C         143.2063  134.2799  156.8558 C.ar    1  UNL1        0.1641
     32 O         144.1717  133.2796  157.4194 O.2     1  UNL1       -0.4384
     33 C         144.2839  129.7864  158.0685 C.3     1  UNL1        0.0102
     34 C         144.7068  130.7016  156.9579 C.3     1  UNL1        0.0853
@<TRIPOS>BOND
     1    33    34    1
     2    34    24    1
     3    24    25   ar
     4    25    26   ar
     5    26    27   ar
     6    27    28   ar
     7    28    29   ar
     8    29    23    1
     9    23     1    1
    10     1     2    1
    11     2     3    1
    12     3     4    1
    13     4     7    1
    14     7     8   am
    15     8     9    2
    16     8    11    1
    17    11    12   ar
    18    12    13   ar
    19    13    14    2
    20    13    15   ar
    21    15    16   ar
    22    16    17   ar
    23    17    18   ar
    24    18    19    1
    25    18    20   ar
    26    20    21   ar
    27    21    22   ar
    28     4     5    1
    29     5     6    1
    30    29    30   ar
    31    30    31   ar
    32    31    32   ar
    33    32    24   ar
    34    31    26   ar
    35     6     1    1
    36    22    11   ar
    37    21    15   ar
    38     7    10    1
@<TRIPOS>MOLECULE
*****
 34 38 0 0 0
SMALL
GASTEIGER

@<TRIPOS>ATOM
      1 N         141.8171  137.8213  162.1931 N.3     1  UNL1       -0.2688
      2 C         140.9947  138.2378  161.0098 C.3     1  UNL1        0.0741
      3 C         141.6620  138.8283  159.8031 C.3     1  UNL1        0.0369
      4 C         143.1517  139.0022  159.7797 C.3     1  UNL1        0.0747
      5 C         143.9741  138.5857  160.9630 C.3     1  UNL1        0.0369
      6 C         143.3068  137.9952  162.1697 C.3     1  UNL1        0.0741
      7 N         143.8189  139.5927  158.5731 N.am    1  UNL1       -0.2999
      8 C         143.8370  141.0799  158.3785 C.2     1  UNL1        0.2806
      9 O         143.1877  141.9767  159.3905 O.2     1  UNL1       -0.2668
     10 H         144.2451  139.0042  157.9088 H       1  UNL1        0.1498
     11 C         144.5043  141.6704  157.1718 C.ar    1  UNL1        0.2014
     12 C         143.7012  142.4626  156.1831 C.ar    1  UNL1        0.0843
     13 C         144.3684  143.0530  154.9764 C.ar    1  UNL1        0.2018
     14 O         143.5654  143.8453  153.9877 O.2     1  UNL1       -0.2864
     15 C         145.8388  142.8513  154.7583 C.ar    1  UNL1        0.0737
     16 C         146.5060  143.4418  153.5517 C.ar    1  UNL1        0.0085
     17 C         147.9763  143.2400  153.3337 C.ar    1  UNL1        0.0299
     18 C         148.7793  142.4478  154.3224 C.ar    1  UNL1        0.1432
     19 F         150.2497  142.2461  154.1043 F       1  UNL1       -0.2041
     20 C         148.1121  141.8573  155.5291 C.ar    1  UNL1        0.0672
     21 C         146.6418  142.0591  155.7470 C.ar    1  UNL1        0.1508
     22 O         145.9745  141.4686  156.9538 O.2     1  UNL1       -0.4486
     23 C         141.1498  137.2308  163.3997 C.3     1  UNL1        0.0992
     24 C         141.1184  141.4928  168.1527 C.ar    1  UNL1        0.2057
     25 N         139.7712  140.8707  167.9335 N.ar    1  UNL1       -0.2121
     26 C         139.8908  139.8922  166.8029 C.ar    1  UNL1        0.1185
     27 C         138.8894  138.9877  166.1481 C.ar    1  UNL1        0.0220
     28 C         139.3090  138.1005  165.0137 C.ar    1  UNL1       -0.0012
     29 C         140.7302  138.1179  164.5341 C.ar    1  UNL1       -0.0030
     30 C         141.7316  139.0225  165.1889 C.ar    1  UNL1        0.0362
     31 C         141.3120  139.9096  166.3233 C.ar    1  UNL1        0.1641
     32 O         142.0707  140.8989  167.1576 O.2     1  UNL1       -0.4384
     33 C         140.4541  143.5883  169.5375 C.3     1  UNL1        0.0102
     34 C         141.4543  142.5273  169.1858 C.3     1  UNL1        0.0853
@<TRIPOS>BOND
     1    33    34    1
     2    34    24    1
     3    24    25   ar
     4    25    26   ar
     5    26    27   ar
     6    27    28   ar
     7    28    29   ar
     8    29    23    1
     9    23     1    1
    10     1     2    1
    11     2     3    1
    12     3     4    1
    13     4     7    1
    14     7     8   am
    15     8     9    2
    16     8    11    1
    17    11    12   ar
    18    12    13   ar
    19    13    14    2
    20    13    15   ar
    21    15    16   ar
    22    16    17   ar
    23    17    18   ar
    24    18    19    1
    25    18    20   ar
    26    20    21   ar
    27    21    22   ar
    28     4     5    1
    29     5     6    1
    30    29    30   ar
    31    30    31   ar
    32    31    32   ar
    33    32    24   ar
    34    31    26   ar
    35     6     1    1
    36    22    11   ar
    37    21    15   ar
    38     7    10    1
@<TRIPOS>MOLECULE
*****
 34 38 0 0 0
SMALL
GASTEIGER

@<TRIPOS>ATOM
      1 N         142.5499  141.2267  158.1093 N.3     1  UNL1       -0.2688
      2 C         141.6683  140.6137  157.0619 C.3     1  UNL1        0.0741
      3 C         141.5781  139.1216  156.9370 C.3     1  UNL1        0.0369
      4 C         142.3694  138.2425  157.8596 C.3     1  UNL1        0.0747
      5 C         143.2510  138.8555  158.9069 C.3     1  UNL1        0.0369
      6 C         143.3412  140.3475  159.0318 C.3     1  UNL1        0.0741
      7 N         142.2791  136.7505  157.7347 N.am    1  UNL1       -0.2999
      8 C         143.2020  136.0184  156.8061 C.2     1  UNL1        0.2806
      9 O         144.2152  136.7783  156.0024 O.2     1  UNL1       -0.2668
     10 H         141.6141  136.2517  158.2621 H       1  UNL1        0.1498
     11 C         143.1117  134.5262  156.6812 C.ar    1  UNL1        0.2014
     12 C         144.0939  133.6524  157.4034 C.ar    1  UNL1        0.0843
     13 C         144.0036  132.1604  157.2786 C.ar    1  UNL1        0.2018
     14 O         144.9858  131.2865  158.0008 O.2     1  UNL1       -0.2864
     15 C         142.9310  131.5421  156.4315 C.ar    1  UNL1        0.0737
     16 C         142.8408  130.0501  156.3067 C.ar    1  UNL1        0.0085
     17 C         141.7682  129.4319  155.4597 C.ar    1  UNL1        0.0299
     18 C         140.7860  130.3057  154.7375 C.ar    1  UNL1        0.1432
     19 F         139.7134  129.6875  153.8904 F       1  UNL1       -0.2041
     20 C         140.8763  131.7978  154.8623 C.ar    1  UNL1        0.0672
     21 C         141.9488  132.4160  155.7093 C.ar    1  UNL1        0.1508
     22 O         142.0391  133.9081  155.8342 O.2     1  UNL1       -0.4486
     23 C         142.6402  142.7187  158.2342 C.3     1  UNL1        0.0992
     24 C         138.8046  144.1818  163.1234 C.ar    1  UNL1        0.2057
     25 N         139.0510  145.3532  162.2194 N.ar    1  UNL1       -0.2121
     26 C         139.9576  144.9021  161.1128 C.ar    1  UNL1        0.1185
     27 C         140.5378  145.6244  159.9332 C.ar    1  UNL1        0.0220
     28 C         141.4320  144.8966  158.9737 C.ar    1  UNL1       -0.0012
     29 C         141.7460  143.4465  159.1937 C.ar    1  UNL1       -0.0030
     30 C         141.1657  142.7242  160.3733 C.ar    1  UNL1        0.0362
     31 C         140.2715  143.4520  161.3329 C.ar    1  UNL1        0.1641
     32 O         139.5589  143.0067  162.5755 O.2     1  UNL1       -0.4384
     33 C         138.4196  144.9050  165.5889 C.3     1  UNL1        0.0102
     34 C         137.9533  144.1849  164.3585 C.3     1  UNL1        0.0853
@<TRIPOS>BOND
     1    33    34    1
     2    34    24    1
     3    24    25   ar
     4    25    26   ar
     5    26    27   ar
     6    27    28   ar
     7    28    29   ar
     8    29    23    1
     9    23     1    1
    10     1     2    1
    11     2     3    1
    12     3     4    1
    13     4     7    1
    14     7     8   am
    15     8     9    2
    16     8    11    1
    17    11    12   ar
    18    12    13   ar
    19    13    14    2
    20    13    15   ar
    21    15    16   ar
    22    16    17   ar
    23    17    18   ar
    24    18    19    1
    25    18    20   ar
    26    20    21   ar
    27    21    22   ar
    28     4     5    1
    29     5     6    1
    30    29    30   ar
    31    30    31   ar
    32    31    32   ar
    33    32    24   ar
    34    31    26   ar
    35     6     1    1
    36    22    11   ar
    37    21    15   ar
    38     7    10    1
@<TRIPOS>MOLECULE
*****
 34 38 0 0 0
SMALL
GASTEIGER

@<TRIPOS>ATOM
      1 N         140.0566  145.2936  156.3777 N.3     1  UNL1       -0.2688
      2 C         141.1759  146.0404  157.0405 C.3     1  UNL1        0.0741
      3 C         141.7287  145.5573  158.3486 C.3     1  UNL1        0.0369
      4 C         141.1622  144.3275  158.9939 C.3     1  UNL1        0.0747
      5 C         140.0428  143.5806  158.3311 C.3     1  UNL1        0.0369
      6 C         139.4900  144.0637  157.0231 C.3     1  UNL1        0.0741
      7 N         141.7150  143.8444  160.3019 N.am    1  UNL1       -0.2999
      8 C         141.0217  144.1959  161.5848 C.2     1  UNL1        0.2806
      9 O         139.7755  145.0304  161.5596 O.2     1  UNL1       -0.2668
     10 H         142.5329  143.2967  160.3185 H       1  UNL1        0.1498
     11 C         141.5746  143.7128  162.8929 C.ar    1  UNL1        0.2014
     12 C         143.0362  143.4007  163.0199 C.ar    1  UNL1        0.0843
     13 C         143.5892  142.9176  164.3279 C.ar    1  UNL1        0.2018
     14 O         145.0508  142.6055  164.4548 O.2     1  UNL1       -0.2864
     15 C         142.6804  142.7467  165.5090 C.ar    1  UNL1        0.0737
     16 C         143.2333  142.2636  166.8170 C.ar    1  UNL1        0.0085
     17 C         142.3245  142.0927  167.9980 C.ar    1  UNL1        0.0299
     18 C         140.8629  142.4049  167.8711 C.ar    1  UNL1        0.1432
     19 F         139.9541  142.2340  169.0522 F       1  UNL1       -0.2041
     20 C         140.3100  142.8879  166.5631 C.ar    1  UNL1        0.0672
     21 C         141.2187  143.0588  165.3820 C.ar    1  UNL1        0.1508
     22 O         140.6658  143.5419  164.0740 O.2     1  UNL1       -0.4486
     23 C         139.5037  145.7766  155.0697 C.3     1  UNL1        0.0992
     24 C         138.6760  152.1042  154.8882 C.ar    1  UNL1        0.2057
     25 N         139.6535  151.6255  153.8561 N.ar    1  UNL1       -0.2121
     26 C         139.7723  150.1359  153.9858 C.ar    1  UNL1        0.1185
     27 C         140.5868  149.1247  153.2348 C.ar    1  UNL1        0.0220
     28 C         140.4973  147.6716  153.5961 C.ar    1  UNL1       -0.0012
     29 C         139.5932  147.2297  154.7084 C.ar    1  UNL1       -0.0030
     30 C         138.7787  148.2408  155.4594 C.ar    1  UNL1        0.0362
     31 C         138.8682  149.6939  155.0981 C.ar    1  UNL1        0.1641
     32 O         138.1906  150.9104  155.6559 O.2     1  UNL1       -0.4384
     33 C         138.2233  154.4895  153.9633 C.3     1  UNL1        0.0102
     34 C         138.2574  153.5270  155.1132 C.3     1  UNL1        0.0853
@<TRIPOS>BOND
     1    33    34    1
     2    34    24    1
     3    24    25   ar
     4    25    26   ar
     5    26    27   ar
     6    27    28   ar
     7    28    29   ar
     8    29    23    1
     9    23     1    1
    10     1     2    1
    11     2     3    1
    12     3     4    1
    13     4     7    1
    14     7     8   am
    15     8     9    2
    16     8    11    1
    17    11    12   ar
    18    12    13   ar
    19    13    14    2
    20    13    15   ar
    21    15    16   ar
    22    16    17   ar
    23    17    18   ar
    24    18    19    1
    25    18    20   ar
    26    20    21   ar
    27    21    22   ar
    28     4     5    1
    29     5     6    1
    30    29    30   ar
    31    30    31   ar
    32    31    32   ar
    33    32    24   ar
    34    31    26   ar
    35     6     1    1
    36    22    11   ar
    37    21    15   ar
    38     7    10    1
@<TRIPOS>MOLECULE
*****
 34 38 0 0 0
SMALL
GASTEIGER

@<TRIPOS>ATOM
      1 N         141.3135  145.1507  159.6298 N.3     1  UNL1       -0.2688
      2 C         142.1761  143.9952  160.0431 C.3     1  UNL1        0.0741
      3 C         142.0820  143.4500  161.4374 C.3     1  UNL1        0.0369
      4 C         141.1253  144.0603  162.4183 C.3     1  UNL1        0.0747
      5 C         140.2627  145.2158  162.0050 C.3     1  UNL1        0.0369
      6 C         140.3568  145.7610  160.6108 C.3     1  UNL1        0.0741
      7 N         141.0312  143.5151  163.8125 N.am    1  UNL1       -0.2999
      8 C         140.2094  142.2902  164.0850 C.2     1  UNL1        0.2806
      9 O         139.4818  141.6104  162.9632 O.2     1  UNL1       -0.2668
     10 H         141.5088  143.9613  164.5488 H       1  UNL1        0.1498
     11 C         140.1154  141.7450  165.4793 C.ar    1  UNL1        0.2014
     12 C         139.2234  140.5741  165.7681 C.ar    1  UNL1        0.0843
     13 C         139.1293  140.0290  167.1623 C.ar    1  UNL1        0.2018
     14 O         138.2373  138.8581  167.4512 O.2     1  UNL1       -0.2864
     15 C         139.9272  140.6546  168.2678 C.ar    1  UNL1        0.0737
     16 C         139.8331  140.1094  169.6620 C.ar    1  UNL1        0.0085
     17 C         140.6310  140.7351  170.7673 C.ar    1  UNL1        0.0299
     18 C         141.5230  141.9059  170.4785 C.ar    1  UNL1        0.1432
     19 F         142.3210  142.5316  171.5839 F       1  UNL1       -0.2041
     20 C         141.6171  142.4511  169.0843 C.ar    1  UNL1        0.0672
     21 C         140.8192  141.8255  167.9789 C.ar    1  UNL1        0.1508
     22 O         140.9133  142.3707  166.5846 O.2     1  UNL1       -0.4486
     23 C         141.4076  145.6959  158.2356 C.3     1  UNL1        0.0992
     24 C         136.7246  142.9899  154.8438 C.ar    1  UNL1        0.2057
     25 N         136.9685  144.4155  154.4461 N.ar    1  UNL1       -0.2121
     26 C         138.0802  144.9510  155.2990 C.ar    1  UNL1        0.1185
     27 C         138.7461  146.2939  155.3531 C.ar    1  UNL1        0.0220
     28 C         139.8553  146.5422  156.3319 C.ar    1  UNL1       -0.0012
     29 C         140.2984  145.4476  157.2567 C.ar    1  UNL1       -0.0030
     30 C         139.6325  144.1047  157.2027 C.ar    1  UNL1        0.0362
     31 C         138.5233  143.8564  156.2238 C.ar    1  UNL1        0.1641
     32 O         137.6856  142.6443  155.9425 O.2     1  UNL1       -0.4384
     33 C         136.1353  140.8919  153.4292 C.3     1  UNL1        0.0102
     34 C         135.6997  142.0712  154.2474 C.3     1  UNL1        0.0853
@<TRIPOS>BOND
     1    33    34    1
     2    34    24    1
     3    24    25   ar
     4    25    26   ar
     5    26    27   ar
     6    27    28   ar
     7    28    29   ar
     8    29    23    1
     9    23     1    1
    10     1     2    1
    11     2     3    1
    12     3     4    1
    13     4     7    1
    14     7     8   am
    15     8     9    2
    16     8    11    1
    17    11    12   ar
    18    12    13   ar
    19    13    14    2
    20    13    15   ar
    21    15    16   ar
    22    16    17   ar
    23    17    18   ar
    24    18    19    1
    25    18    20   ar
    26    20    21   ar
    27    21    22   ar
    28     4     5    1
    29     5     6    1
    30    29    30   ar
    31    30    31   ar
    32    31    32   ar
    33    32    24   ar
    34    31    26   ar
    35     6     1    1
    36    22    11   ar
    37    21    15   ar
    38     7    10    1
@<TRIPOS>MOLECULE
*****
 34 38 0 0 0
SMALL
GASTEIGER

@<TRIPOS>ATOM
      1 N         141.1663  138.2985  158.3613 N.3     1  UNL1       -0.2688
      2 C         142.3024  138.2545  159.3398 C.3     1  UNL1        0.0741
      3 C         142.0270  138.3293  160.8125 C.3     1  UNL1        0.0369
      4 C         140.6158  138.4480  161.3065 C.3     1  UNL1        0.0747
      5 C         139.4797  138.4920  160.3280 C.3     1  UNL1        0.0369
      6 C         139.7550  138.4172  158.8554 C.3     1  UNL1        0.0741
      7 N         140.3405  138.5228  162.7791 N.am    1  UNL1       -0.2999
      8 C         140.0191  139.8423  163.4160 C.2     1  UNL1        0.2806
      9 O         139.9728  141.0870  162.5803 O.2     1  UNL1       -0.2668
     10 H         140.3709  137.7059  163.3277 H       1  UNL1        0.1498
     11 C         139.7438  139.9170  164.8887 C.ar    1  UNL1        0.2014
     12 C         138.7420  138.9911  165.5123 C.ar    1  UNL1        0.0843
     13 C         138.4667  139.0658  166.9849 C.ar    1  UNL1        0.2018
     14 O         137.4648  138.1399  167.6086 O.2     1  UNL1       -0.2864
     15 C         139.1933  140.0665  167.8340 C.ar    1  UNL1        0.0737
     16 C         138.9180  140.1412  169.3066 C.ar    1  UNL1        0.0085
     17 C         139.6446  141.1418  170.1555 C.ar    1  UNL1        0.0299
     18 C         140.6464  142.0677  169.5319 C.ar    1  UNL1        0.1432
     19 F         141.3730  143.0684  170.3809 F       1  UNL1       -0.2041
     20 C         140.9217  141.9930  168.0593 C.ar    1  UNL1        0.0672
     21 C         140.1951  140.9924  167.2103 C.ar    1  UNL1        0.1508
     22 O         140.4704  140.9177  165.7376 O.2     1  UNL1       -0.4486
     23 C         141.4416  138.2237  156.8887 C.3     1  UNL1        0.0992
     24 C         146.2047  142.1654  155.2975 C.ar    1  UNL1        0.2057
     25 N         146.4266  140.7689  154.7969 N.ar    1  UNL1       -0.2121
     26 C         145.2569  139.9323  155.2232 C.ar    1  UNL1        0.1185
     27 C         144.9300  138.4834  155.0143 C.ar    1  UNL1        0.0220
     28 C         143.6582  137.9138  155.5695 C.ar    1  UNL1       -0.0012
     29 C         142.7133  138.7932  156.3335 C.ar    1  UNL1       -0.0030
     30 C         143.0402  140.2422  156.5424 C.ar    1  UNL1        0.0362
     31 C         144.3120  140.8117  155.9872 C.ar    1  UNL1        0.1641
     32 O         144.8978  142.1919  156.0332 O.2     1  UNL1       -0.4384
     33 C         147.2183  143.9942  153.7553 C.3     1  UNL1        0.0102
     34 C         147.1278  143.3308  155.0976 C.3     1  UNL1        0.0853
@<TRIPOS>BOND
     1    33    34    1
     2    34    24    1
     3    24    25   ar
     4    25    26   ar
     5    26    27   ar
     6    27    28   ar
     7    28    29   ar
     8    29    23    1
     9    23     1    1
    10     1     2    1
    11     2     3    1
    12     3     4    1
    13     4     7    1
    14     7     8   am
    15     8     9    2
    16     8    11    1
    17    11    12   ar
    18    12    13   ar
    19    13    14    2
    20    13    15   ar
    21    15    16   ar
    22    16    17   ar
    23    17    18   ar
    24    18    19    1
    25    18    20   ar
    26    20    21   ar
    27    21    22   ar
    28     4     5    1
    29     5     6    1
    30    29    30   ar
    31    30    31   ar
    32    31    32   ar
    33    32    24   ar
    34    31    26   ar
    35     6     1    1
    36    22    11   ar
    37    21    15   ar
    38     7    10    1
@<TRIPOS>MOLECULE
*****
 34 38 0 0 0
SMALL
GASTEIGER

@<TRIPOS>ATOM
      1 N         140.6733  143.5631  158.9054 N.3     1  UNL1       -0.2688
      2 C         139.9746  144.1959  160.0722 C.3     1  UNL1        0.0741
      3 C         140.3201  143.7770  161.4705 C.3     1  UNL1        0.0369
      4 C         141.3643  142.7253  161.7019 C.3     1  UNL1        0.0747
      5 C         142.0630  142.0925  160.5352 C.3     1  UNL1        0.0369
      6 C         141.7175  142.5114  159.1369 C.3     1  UNL1        0.0741
      7 N         141.7097  142.3065  163.1002 N.am    1  UNL1       -0.2999
      8 C         141.2764  140.9638  163.6096 C.2     1  UNL1        0.2806
      9 O         140.4976  140.0400  162.7208 O.2     1  UNL1       -0.2668
     10 H         142.2209  142.9128  163.6836 H       1  UNL1        0.1498
     11 C         141.6219  140.5450  165.0080 C.ar    1  UNL1        0.2014
     12 C         142.6246  139.4533  165.2377 C.ar    1  UNL1        0.0843
     13 C         142.9701  139.0344  166.6360 C.ar    1  UNL1        0.2018
     14 O         143.9728  137.9427  166.8658 O.2     1  UNL1       -0.2864
     15 C         142.3129  139.7073  167.8046 C.ar    1  UNL1        0.0737
     16 C         142.6585  139.2884  169.2028 C.ar    1  UNL1        0.0085
     17 C         142.0013  139.9613  170.3713 C.ar    1  UNL1        0.0299
     18 C         140.9986  141.0529  170.1415 C.ar    1  UNL1        0.1432
     19 F         140.3414  141.7258  171.3100 F       1  UNL1       -0.2041
     20 C         140.6531  141.4718  168.7432 C.ar    1  UNL1        0.0672
     21 C         141.3102  140.7990  167.5748 C.ar    1  UNL1        0.1508
     22 O         140.9647  141.2178  166.1764 O.2     1  UNL1       -0.4486
     23 C         140.3278  143.9820  157.5071 C.3     1  UNL1        0.0992
     24 C         135.0724  140.6609  156.0552 C.ar    1  UNL1        0.2057
     25 N         135.2292  141.8850  155.2024 N.ar    1  UNL1       -0.2121
     26 C         136.4865  142.5859  155.6243 C.ar    1  UNL1        0.1185
     27 C         137.1467  143.8420  155.1384 C.ar    1  UNL1        0.0220
     28 C         138.4272  144.3074  155.7660 C.ar    1  UNL1       -0.0012
     29 C         139.0474  143.5166  156.8795 C.ar    1  UNL1       -0.0030
     30 C         138.3871  142.2605  157.3654 C.ar    1  UNL1        0.0362
     31 C         137.1067  141.7951  156.7378 C.ar    1  UNL1        0.1641
     32 O         136.2327  140.6054  157.0041 O.2     1  UNL1       -0.4384
     33 C         132.7662  139.7969  156.8828 C.3     1  UNL1        0.0102
     34 C         133.9519  139.6670  155.9733 C.3     1  UNL1        0.0853
@<TRIPOS>BOND
     1    33    34    1
     2    34    24    1
     3    24    25   ar
     4    25    26   ar
     5    26    27   ar
     6    27    28   ar
     7    28    29   ar
     8    29    23    1
     9    23     1    1
    10     1     2    1
    11     2     3    1
    12     3     4    1
    13     4     7    1
    14     7     8   am
    15     8     9    2
    16     8    11    1
    17    11    12   ar
    18    12    13   ar
    19    13    14    2
    20    13    15   ar
    21    15    16   ar
    22    16    17   ar
    23    17    18   ar
    24    18    19    1
    25    18    20   ar
    26    20    21   ar
    27    21    22   ar
    28     4     5    1
    29     5     6    1
    30    29    30   ar
    31    30    31   ar
    32    31    32   ar
    33    32    24   ar
    34    31    26   ar
    35     6     1    1
    36    22    11   ar
    37    21    15   ar
    38     7    10    1
@<TRIPOS>MOLECULE
*****
 34 38 0 0 0
SMALL
GASTEIGER

@<TRIPOS>ATOM
      1 N         142.0598  138.1055  162.2155 N.3     1  UNL1       -0.2688
      2 C         141.1395  138.5618  161.1224 C.3     1  UNL1        0.0741
      3 C         141.7047  139.1364  159.8572 C.3     1  UNL1        0.0369
      4 C         143.1901  139.2547  159.6853 C.3     1  UNL1        0.0747
      5 C         144.1103  138.7985  160.7784 C.3     1  UNL1        0.0369
      6 C         143.5452  138.2239  162.0435 C.3     1  UNL1        0.0741
      7 N         143.7552  139.8293  158.4202 N.am    1  UNL1       -0.2999
      8 C         144.0355  141.2998  158.3240 C.2     1  UNL1        0.2806
      9 O         143.7507  142.1956  159.4929 O.2     1  UNL1       -0.2668
     10 H         143.9421  139.2414  157.6530 H       1  UNL1        0.1498
     11 C         144.6006  141.8743  157.0589 C.ar    1  UNL1        0.2014
     12 C         145.9414  141.4205  156.5624 C.ar    1  UNL1        0.0843
     13 C         146.5065  141.9950  155.2973 C.ar    1  UNL1        0.2018
     14 O         147.8472  141.5412  154.8009 O.2     1  UNL1       -0.2864
     15 C         145.7309  143.0234  154.5286 C.ar    1  UNL1        0.0737
     16 C         146.2960  143.5980  153.2635 C.ar    1  UNL1        0.0085
     17 C         145.5204  144.6263  152.4948 C.ar    1  UNL1        0.0299
     18 C         144.1796  145.0801  152.9913 C.ar    1  UNL1        0.1432
     19 F         143.4040  146.1085  152.2225 F       1  UNL1       -0.2041
     20 C         143.6145  144.5056  154.2564 C.ar    1  UNL1        0.0672
     21 C         144.3901  143.4773  155.0250 C.ar    1  UNL1        0.1508
     22 O         143.8250  142.9027  156.2902 O.2     1  UNL1       -0.4486
     23 C         141.4947  137.5309  163.4806 C.3     1  UNL1        0.0992
     24 C         140.5413  141.2412  168.5876 C.ar    1  UNL1        0.2057
     25 N         141.8831  140.5710  168.6101 N.ar    1  UNL1       -0.2121
     26 C         142.0020  139.7300  167.3738 C.ar    1  UNL1        0.1185
     27 C         143.1012  138.8466  166.8626 C.ar    1  UNL1        0.0220
     28 C         142.9321  138.1136  165.5649 C.ar    1  UNL1       -0.0012
     29 C         141.6638  138.2639  164.7783 C.ar    1  UNL1       -0.0030
     30 C         140.5646  139.1473  165.2895 C.ar    1  UNL1        0.0362
     31 C         140.7336  139.8803  166.5872 C.ar    1  UNL1        0.1641
     32 O         139.8309  140.8143  167.3374 O.2     1  UNL1       -0.4384
     33 C         140.4471  143.6073  169.6566 C.3     1  UNL1        0.0102
     34 C         140.0043  142.1744  169.6320 C.3     1  UNL1        0.0853
@<TRIPOS>BOND
     1    33    34    1
     2    34    24    1
     3    24    25   ar
     4    25    26   ar
     5    26    27   ar
     6    27    28   ar
     7    28    29   ar
     8    29    23    1
     9    23     1    1
    10     1     2    1
    11     2     3    1
    12     3     4    1
    13     4     7    1
    14     7     8   am
    15     8     9    2
    16     8    11    1
    17    11    12   ar
    18    12    13   ar
    19    13    14    2
    20    13    15   ar
    21    15    16   ar
    22    16    17   ar
    23    17    18   ar
    24    18    19    1
    25    18    20   ar
    26    20    21   ar
    27    21    22   ar
    28     4     5    1
    29     5     6    1
    30    29    30   ar
    31    30    31   ar
    32    31    32   ar
    33    32    24   ar
    34    31    26   ar
    35     6     1    1
    36    22    11   ar
    37    21    15   ar
    38     7    10    1
@<TRIPOS>MOLECULE
*****
 34 38 0 0 0
SMALL
GASTEIGER

@<TRIPOS>ATOM
      1 N         142.7169  141.5963  161.1768 N.3     1  UNL1       -0.2688
      2 C         141.4620  141.3124  160.4057 C.3     1  UNL1        0.0741
      3 C         141.3388  140.0440  159.6144 C.3     1  UNL1        0.0369
      4 C         142.4703  139.0596  159.5943 C.3     1  UNL1        0.0747
      5 C         143.7252  139.3435  160.3654 C.3     1  UNL1        0.0369
      6 C         143.8486  140.6118  161.1566 C.3     1  UNL1        0.0741
      7 N         142.3470  137.7913  158.8030 N.am    1  UNL1       -0.2999
      8 C         142.9726  137.6917  157.4433 C.2     1  UNL1        0.2806
      9 O         143.7214  138.8605  156.8749 O.2     1  UNL1       -0.2668
     10 H         141.8555  137.0242  159.1761 H       1  UNL1        0.1498
     11 C         142.8492  136.4233  156.6520 C.ar    1  UNL1        0.2014
     12 C         141.8516  136.3298  155.5358 C.ar    1  UNL1        0.0843
     13 C         141.7282  135.0615  154.7445 C.ar    1  UNL1        0.2018
     14 O         140.7306  134.9679  153.6283 O.2     1  UNL1       -0.2864
     15 C         142.6025  133.8866  155.0695 C.ar    1  UNL1        0.0737
     16 C         142.4791  132.6183  154.2782 C.ar    1  UNL1        0.0085
     17 C         143.3534  131.4436  154.6032 C.ar    1  UNL1        0.0299
     18 C         144.3510  131.5372  155.7195 C.ar    1  UNL1        0.1432
     19 F         145.2252  130.3623  156.0445 F       1  UNL1       -0.2041
     20 C         144.4743  132.8055  156.5107 C.ar    1  UNL1        0.0672
     21 C         143.6001  133.9802  156.1857 C.ar    1  UNL1        0.1508
     22 O         143.7235  135.2486  156.9770 O.2     1  UNL1       -0.4486
     23 C         142.8402  142.8646  161.9681 C.3     1  UNL1        0.0992
     24 C         141.9871  141.9046  168.2216 C.ar    1  UNL1        0.2057
     25 N         143.3264  142.5053  167.9128 N.ar    1  UNL1       -0.2121
     26 C         143.4212  142.6874  166.4269 C.ar    1  UNL1        0.1185
     27 C         144.5082  143.2347  165.5501 C.ar    1  UNL1        0.0220
     28 C         144.3146  143.2937  164.0638 C.ar    1  UNL1       -0.0012
     29 C         143.0339  142.8055  163.4543 C.ar    1  UNL1       -0.0030
     30 C         141.9469  142.2583  164.3312 C.ar    1  UNL1        0.0362
     31 C         142.1405  142.1992  165.8174 C.ar    1  UNL1        0.1641
     32 O         141.2541  141.7154  166.9267 O.2     1  UNL1       -0.4384
     33 C         139.9940  141.4574  169.8272 C.3     1  UNL1        0.0102
     34 C         141.4713  141.5545  169.5860 C.3     1  UNL1        0.0853
@<TRIPOS>BOND
     1    33    34    1
     2    34    24    1
     3    24    25   ar
     4    25    26   ar
     5    26    27   ar
     6    27    28   ar
     7    28    29   ar
     8    29    23    1
     9    23     1    1
    10     1     2    1
    11     2     3    1
    12     3     4    1
    13     4     7    1
    14     7     8   am
    15     8     9    2
    16     8    11    1
    17    11    12   ar
    18    12    13   ar
    19    13    14    2
    20    13    15   ar
    21    15    16   ar
    22    16    17   ar
    23    17    18   ar
    24    18    19    1
    25    18    20   ar
    26    20    21   ar
    27    21    22   ar
    28     4     5    1
    29     5     6    1
    30    29    30   ar
    31    30    31   ar
    32    31    32   ar
    33    32    24   ar
    34    31    26   ar
    35     6     1    1
    36    22    11   ar
    37    21    15   ar
    38     7    10    1
