@<TRIPOS>MOLECULE
*****
 28 30 0 0 0
SMALL
GASTEIGER

@<TRIPOS>ATOM
      1 N         142.4858  140.6136  164.6939 N.pl3   1  UNL1       -0.2616
      2 C         142.5972  140.3585  166.1679 C.ar    1  UNL1        0.0545
      3 C         142.7768  138.9585  166.6753 C.ar    1  UNL1        0.0149
      4 C         142.8882  138.7035  168.1493 C.ar    1  UNL1        0.0026
      5 C         142.8201  139.8485  169.1158 C.ar    1  UNL1        0.0184
      6 C         142.6405  141.2486  168.6084 C.ar    1  UNL1        0.1070
      7 C         142.5291  141.5036  167.1345 C.ar    1  UNL1        0.0332
      8 S         142.5724  142.3937  169.5749 S.O2    1  UNL1        0.0105
      9 C         142.5043  143.5387  170.5415 C.3     1  UNL1        0.1816
     10 O         144.0148  142.7060  169.3066 O.2     1  UNL1       -0.1686
     11 O         141.1301  142.0814  169.8433 O.2     1  UNL1       -0.1686
     12 P         141.2944  141.3425  164.1469 P.3     1  UNL1        0.2265
     13 O         140.1030  142.0715  163.5999 O.2     1  UNL1       -0.2903
     14 C         142.1874  142.4560  163.6857 C.ar    1  UNL1        0.0498
     15 C         142.5747  142.5570  162.2401 C.ar    1  UNL1        0.0046
     16 C         143.4677  143.6704  161.7789 C.ar    1  UNL1        0.0002
     17 C         143.9734  144.6829  162.7633 C.ar    1  UNL1        0.0000
     18 C         143.5862  144.5820  164.2088 C.ar    1  UNL1        0.0002
     19 C         142.6932  143.4685  164.6701 C.ar    1  UNL1        0.0046
     20 C         140.4014  140.2291  164.6081 C.ar    1  UNL1        0.0498
     21 C         139.4354  140.4591  165.7324 C.ar    1  UNL1        0.0046
     22 C         138.5424  139.3456  166.1936 C.ar    1  UNL1        0.0002
     23 C         138.6154  138.0021  165.5306 C.ar    1  UNL1        0.0000
     24 C         139.5813  137.7721  164.4063 C.ar    1  UNL1        0.0002
     25 C         140.4744  138.8856  163.9451 C.ar    1  UNL1        0.0046
     26 C         143.5657  140.1398  163.7671 C.3     1  UNL1        0.0974
     27 C         145.7801  141.4984  163.8019 C.3     1  UNL1        0.0018
     28 C         145.0060  140.2663  164.1667 C.3     1  UNL1        0.0218
@<TRIPOS>BOND
     1    27    28    1
     2    28    26    1
     3    26     1    1
     4     1     2    1
     5     2     3   ar
     6     3     4   ar
     7     4     5   ar
     8     5     6   ar
     9     6     8    1
    10     8     9    1
    11     8    10    2
    12     8    11    2
    13     6     7   ar
    14     1    12    1
    15    12    13    2
    16    12    14    1
    17    14    15   ar
    18    15    16   ar
    19    16    17   ar
    20    17    18   ar
    21    18    19   ar
    22    12    20    1
    23    20    21   ar
    24    21    22   ar
    25    22    23   ar
    26    23    24   ar
    27    24    25   ar
    28     7     2   ar
    29    19    14   ar
    30    25    20   ar
@<TRIPOS>MOLECULE
*****
 28 30 0 0 0
SMALL
GASTEIGER

@<TRIPOS>ATOM
      1 N         142.4936  140.6078  164.6984 N.pl3   1  UNL1       -0.2616
      2 C         142.6029  140.3659  166.1748 C.ar    1  UNL1        0.0545
      3 C         142.7914  138.9715  166.6944 C.ar    1  UNL1        0.0149
      4 C         142.9007  138.7298  168.1708 C.ar    1  UNL1        0.0026
      5 C         142.8214  139.8824  169.1274 C.ar    1  UNL1        0.0184
      6 C         142.6329  141.2768  168.6078 C.ar    1  UNL1        0.1070
      7 C         142.5236  141.5186  167.1314 C.ar    1  UNL1        0.0332
      8 S         142.5536  142.4294  169.5644 S.O2    1  UNL1        0.0105
      9 C         142.4743  143.5820  170.5211 C.3     1  UNL1        0.1816
     10 O         141.0916  142.1615  169.7660 O.2     1  UNL1       -0.1686
     11 O         144.0156  142.6973  169.3628 O.2     1  UNL1       -0.1686
     12 P         141.3071  141.3391  164.1440 P.3     1  UNL1        0.2265
     13 O         140.1206  142.0704  163.5896 O.2     1  UNL1       -0.2903
     14 C         140.4078  140.2321  164.6085 C.ar    1  UNL1        0.0498
     15 C         139.4252  140.4783  165.7148 C.ar    1  UNL1        0.0046
     16 C         138.5258  139.3713  166.1792 C.ar    1  UNL1        0.0002
     17 C         138.6091  138.0181  165.5374 C.ar    1  UNL1        0.0000
     18 C         139.5916  137.7719  164.4311 C.ar    1  UNL1        0.0002
     19 C         140.4910  138.8789  163.9667 C.ar    1  UNL1        0.0046
     20 C         142.2065  142.4461  163.6795 C.ar    1  UNL1        0.0498
     21 C         142.6243  142.5192  162.2408 C.ar    1  UNL1        0.0046
     22 C         143.5236  143.6262  161.7763 C.ar    1  UNL1        0.0002
     23 C         144.0051  144.6601  162.7506 C.ar    1  UNL1        0.0000
     24 C         143.5873  144.5869  164.1893 C.ar    1  UNL1        0.0002
     25 C         142.6880  143.4799  164.6538 C.ar    1  UNL1        0.0046
     26 C         143.5708  140.1183  163.7765 C.3     1  UNL1        0.0974
     27 C         145.7613  141.5115  163.8811 C.3     1  UNL1        0.0018
     28 C         145.0120  140.2451  164.1727 C.3     1  UNL1        0.0218
@<TRIPOS>BOND
     1    27    28    1
     2    28    26    1
     3    26     1    1
     4     1     2    1
     5     2     3   ar
     6     3     4   ar
     7     4     5   ar
     8     5     6   ar
     9     6     8    1
    10     8     9    1
    11     8    10    2
    12     8    11    2
    13     6     7   ar
    14     1    12    1
    15    12    13    2
    16    12    14    1
    17    14    15   ar
    18    15    16   ar
    19    16    17   ar
    20    17    18   ar
    21    18    19   ar
    22    12    20    1
    23    20    21   ar
    24    21    22   ar
    25    22    23   ar
    26    23    24   ar
    27    24    25   ar
    28     7     2   ar
    29    19    14   ar
    30    25    20   ar
@<TRIPOS>MOLECULE
*****
 28 30 0 0 0
SMALL
GASTEIGER

@<TRIPOS>ATOM
      1 N         142.6329  140.5716  165.4494 N.pl3   1  UNL1       -0.2616
      2 C         142.9079  141.9839  165.0252 C.ar    1  UNL1        0.0545
      3 C         144.0774  142.7258  165.6013 C.ar    1  UNL1        0.0149
      4 C         144.3523  144.1380  165.1771 C.ar    1  UNL1        0.0026
      5 C         143.4578  144.8084  164.1769 C.ar    1  UNL1        0.0184
      6 C         142.2883  144.0665  163.6008 C.ar    1  UNL1        0.1070
      7 C         142.0134  142.6543  164.0250 C.ar    1  UNL1        0.0332
      8 S         141.3938  144.7368  162.6006 S.O2    1  UNL1        0.0105
      9 C         140.4992  145.4072  161.6004 C.3     1  UNL1        0.1816
     10 O         140.3134  144.8401  163.6361 O.2     1  UNL1       -0.1686
     11 O         142.4741  144.6336  161.5652 O.2     1  UNL1       -0.1686
     12 P         141.2943  140.2069  166.0196 P.3     1  UNL1        0.2265
     13 O         139.9557  139.8422  166.5898 O.2     1  UNL1       -0.2903
     14 C         141.0074  139.3682  164.8095 C.ar    1  UNL1        0.0498
     15 C         140.4465  140.0040  163.5722 C.ar    1  UNL1        0.0046
     16 C         140.1595  139.1653  162.3621 C.ar    1  UNL1        0.0002
     17 C         140.4335  137.6908  162.3894 C.ar    1  UNL1        0.0000
     18 C         140.9944  137.0550  163.6268 C.ar    1  UNL1        0.0002
     19 C         141.2813  137.8937  164.8368 C.ar    1  UNL1        0.0046
     20 C         141.5813  141.0456  167.2296 C.ar    1  UNL1        0.0498
     21 C         140.7383  142.2509  167.5238 C.ar    1  UNL1        0.0046
     22 C         141.0253  143.0896  168.7339 C.ar    1  UNL1        0.0002
     23 C         142.1552  142.7230  169.6497 C.ar    1  UNL1        0.0000
     24 C         142.9981  141.5177  169.3555 C.ar    1  UNL1        0.0002
     25 C         142.7112  140.6790  168.1455 C.ar    1  UNL1        0.0046
     26 C         143.6965  139.5241  165.3033 C.3     1  UNL1        0.0974
     27 C         144.0812  139.2311  162.7506 C.3     1  UNL1        0.0018
     28 C         144.6140  139.5471  164.1168 C.3     1  UNL1        0.0218
@<TRIPOS>BOND
     1    27    28    1
     2    28    26    1
     3    26     1    1
     4     1     2    1
     5     2     3   ar
     6     3     4   ar
     7     4     5   ar
     8     5     6   ar
     9     6     8    1
    10     8     9    1
    11     8    10    2
    12     8    11    2
    13     6     7   ar
    14     1    12    1
    15    12    13    2
    16    12    14    1
    17    14    15   ar
    18    15    16   ar
    19    16    17   ar
    20    17    18   ar
    21    18    19   ar
    22    12    20    1
    23    20    21   ar
    24    21    22   ar
    25    22    23   ar
    26    23    24   ar
    27    24    25   ar
    28     7     2   ar
    29    19    14   ar
    30    25    20   ar
@<TRIPOS>MOLECULE
*****
 28 30 0 0 0
SMALL
GASTEIGER

@<TRIPOS>ATOM
      1 N         142.6018  140.6026  165.4802 N.pl3   1  UNL1       -0.2616
      2 C         142.8880  142.0093  165.0449 C.ar    1  UNL1        0.0545
      3 C         144.0847  142.7332  165.5868 C.ar    1  UNL1        0.0149
      4 C         144.3709  144.1398  165.1515 C.ar    1  UNL1        0.0026
      5 C         143.4604  144.8225  164.1743 C.ar    1  UNL1        0.0184
      6 C         142.2637  144.0985  163.6323 C.ar    1  UNL1        0.1070
      7 C         141.9775  142.6919  164.0676 C.ar    1  UNL1        0.0332
      8 S         141.3531  144.7811  162.6551 S.O2    1  UNL1        0.0105
      9 C         140.4426  145.4638  161.6779 C.3     1  UNL1        0.1816
     10 O         140.2942  144.8825  163.7126 O.2     1  UNL1       -0.1686
     11 O         142.4121  144.6797  161.5976 O.2     1  UNL1       -0.1686
     12 P         141.2471  140.2441  166.0154 P.3     1  UNL1        0.2265
     13 O         139.8925  139.8856  166.5506 O.2     1  UNL1       -0.2903
     14 C         141.5002  141.0940  167.2252 C.ar    1  UNL1        0.0498
     15 C         140.6137  142.2686  167.5154 C.ar    1  UNL1        0.0046
     16 C         140.8668  143.1185  168.7253 C.ar    1  UNL1        0.0002
     17 C         142.0064  142.7937  169.6449 C.ar    1  UNL1        0.0000
     18 C         142.8930  141.6191  169.3546 C.ar    1  UNL1        0.0002
     19 C         142.6399  140.7692  168.1448 C.ar    1  UNL1        0.0046
     20 C         140.9940  139.3943  164.8056 C.ar    1  UNL1        0.0498
     21 C         140.4842  140.0212  163.5419 C.ar    1  UNL1        0.0046
     22 C         140.2311  139.1714  162.3321 C.ar    1  UNL1        0.0002
     23 C         140.4878  137.6945  162.3860 C.ar    1  UNL1        0.0000
     24 C         140.9976  137.0675  163.6497 C.ar    1  UNL1        0.0002
     25 C         141.2507  137.9174  164.8595 C.ar    1  UNL1        0.0046
     26 C         143.6701  139.5545  165.3802 C.3     1  UNL1        0.0974
     27 C         144.1284  139.2420  162.8420 C.3     1  UNL1        0.0018
     28 C         144.6227  139.5626  164.2216 C.3     1  UNL1        0.0218
@<TRIPOS>BOND
     1    27    28    1
     2    28    26    1
     3    26     1    1
     4     1     2    1
     5     2     3   ar
     6     3     4   ar
     7     4     5   ar
     8     5     6   ar
     9     6     8    1
    10     8     9    1
    11     8    10    2
    12     8    11    2
    13     6     7   ar
    14     1    12    1
    15    12    13    2
    16    12    14    1
    17    14    15   ar
    18    15    16   ar
    19    16    17   ar
    20    17    18   ar
    21    18    19   ar
    22    12    20    1
    23    20    21   ar
    24    21    22   ar
    25    22    23   ar
    26    23    24   ar
    27    24    25   ar
    28     7     2   ar
    29    19    14   ar
    30    25    20   ar
@<TRIPOS>MOLECULE
*****
 28 30 0 0 0
SMALL
GASTEIGER

@<TRIPOS>ATOM
      1 N         141.5156  141.4326  166.2460 N.pl3   1  UNL1       -0.2616
      2 C         140.5363  142.2691  165.4769 C.ar    1  UNL1        0.0545
      3 C         139.9337  143.4890  166.1083 C.ar    1  UNL1        0.0149
      4 C         138.9545  144.3254  165.3393 C.ar    1  UNL1        0.0026
      5 C         138.5779  143.9420  163.9389 C.ar    1  UNL1        0.0184
      6 C         139.1806  142.7221  163.3075 C.ar    1  UNL1        0.1070
      7 C         140.1597  141.8857  164.0765 C.ar    1  UNL1        0.0332
      8 S         138.8040  142.3387  161.9071 S.O2    1  UNL1        0.0105
      9 C         138.4274  141.9553  160.5066 C.3     1  UNL1        0.1816
     10 O         138.0356  143.6189  161.7632 O.2     1  UNL1       -0.1686
     11 O         139.5724  141.0585  162.0509 O.2     1  UNL1       -0.1686
     12 P         141.0338  140.5390  167.3503 P.3     1  UNL1        0.2265
     13 O         140.5521  139.6454  168.4546 O.2     1  UNL1       -0.2903
     14 C         141.5884  141.4943  168.3651 C.ar    1  UNL1        0.0498
     15 C         140.7040  142.5455  168.9673 C.ar    1  UNL1        0.0046
     16 C         141.2585  143.5008  169.9822 C.ar    1  UNL1        0.0002
     17 C         142.6974  143.4048  170.3949 C.ar    1  UNL1        0.0000
     18 C         143.5818  142.3535  169.7927 C.ar    1  UNL1        0.0002
     19 C         143.0272  141.3982  168.7778 C.ar    1  UNL1        0.0046
     20 C         140.4793  139.5837  166.3354 C.ar    1  UNL1        0.0498
     21 C         138.9953  139.4158  166.1958 C.ar    1  UNL1        0.0046
     22 C         138.4408  138.4605  165.1809 C.ar    1  UNL1        0.0002
     23 C         139.3703  137.6732  164.3056 C.ar    1  UNL1        0.0000
     24 C         140.8542  137.8412  164.4452 C.ar    1  UNL1        0.0002
     25 C         141.4088  138.7964  165.4601 C.ar    1  UNL1        0.0046
     26 C         142.9765  141.4896  165.9107 C.3     1  UNL1        0.0974
     27 C         144.5416  143.5527  165.7006 C.3     1  UNL1        0.0018
     28 C         143.5169  142.6334  165.1047 C.3     1  UNL1        0.0218
@<TRIPOS>BOND
     1    27    28    1
     2    28    26    1
     3    26     1    1
     4     1     2    1
     5     2     3   ar
     6     3     4   ar
     7     4     5   ar
     8     5     6   ar
     9     6     8    1
    10     8     9    1
    11     8    10    2
    12     8    11    2
    13     6     7   ar
    14     1    12    1
    15    12    13    2
    16    12    14    1
    17    14    15   ar
    18    15    16   ar
    19    16    17   ar
    20    17    18   ar
    21    18    19   ar
    22    12    20    1
    23    20    21   ar
    24    21    22   ar
    25    22    23   ar
    26    23    24   ar
    27    24    25   ar
    28     7     2   ar
    29    19    14   ar
    30    25    20   ar
@<TRIPOS>MOLECULE
*****
 28 30 0 0 0
SMALL
GASTEIGER

@<TRIPOS>ATOM
      1 N         141.2135  141.4858  165.9578 N.pl3   1  UNL1       -0.2616
      2 C         140.5814  142.6588  165.2688 C.ar    1  UNL1        0.0545
      3 C         139.5361  143.4697  165.9756 C.ar    1  UNL1        0.0149
      4 C         138.9040  144.6426  165.2865 C.ar    1  UNL1        0.0026
      5 C         139.3174  145.0045  163.8908 C.ar    1  UNL1        0.0184
      6 C         140.3627  144.1936  163.1840 C.ar    1  UNL1        0.1070
      7 C         140.9948  143.0207  163.8731 C.ar    1  UNL1        0.0332
      8 S         140.7761  144.5556  161.7883 S.O2    1  UNL1        0.0105
      9 C         141.1894  144.9175  160.3925 C.3     1  UNL1        0.1816
     10 O         139.3345  144.6301  161.3807 O.2     1  UNL1       -0.1686
     11 O         142.2177  144.4810  162.1959 O.2     1  UNL1       -0.1686
     12 P         142.3037  141.7055  166.9644 P.3     1  UNL1        0.2265
     13 O         143.3939  141.9251  167.9710 O.2     1  UNL1       -0.2903
     14 C         141.2890  141.6806  168.0689 C.ar    1  UNL1        0.0498
     15 C         141.0511  142.9087  168.8965 C.ar    1  UNL1        0.0046
     16 C         140.0363  142.8838  170.0010 C.ar    1  UNL1        0.0002
     17 C         139.2596  141.6309  170.2777 C.ar    1  UNL1        0.0000
     18 C         139.4975  140.4028  169.4500 C.ar    1  UNL1        0.0002
     19 C         140.5122  140.4276  168.3456 C.ar    1  UNL1        0.0046
     20 C         143.3184  141.7303  165.8600 C.ar    1  UNL1        0.0498
     21 C         143.6281  140.4762  165.0977 C.ar    1  UNL1        0.0046
     22 C         144.6428  140.5011  163.9932 C.ar    1  UNL1        0.0002
     23 C         145.3479  141.7801  163.6512 C.ar    1  UNL1        0.0000
     24 C         145.0382  143.0342  164.4136 C.ar    1  UNL1        0.0002
     25 C         144.0235  143.0093  165.5180 C.ar    1  UNL1        0.0046
     26 C         140.7554  140.0932  165.6403 C.3     1  UNL1        0.0974
     27 C         138.2156  139.5461  165.6374 C.3     1  UNL1        0.0018
     28 C         139.4739  139.8778  164.8911 C.3     1  UNL1        0.0218
@<TRIPOS>BOND
     1    27    28    1
     2    28    26    1
     3    26     1    1
     4     1     2    1
     5     2     3   ar
     6     3     4   ar
     7     4     5   ar
     8     5     6   ar
     9     6     8    1
    10     8     9    1
    11     8    10    2
    12     8    11    2
    13     6     7   ar
    14     1    12    1
    15    12    13    2
    16    12    14    1
    17    14    15   ar
    18    15    16   ar
    19    16    17   ar
    20    17    18   ar
    21    18    19   ar
    22    12    20    1
    23    20    21   ar
    24    21    22   ar
    25    22    23   ar
    26    23    24   ar
    27    24    25   ar
    28     7     2   ar
    29    19    14   ar
    30    25    20   ar
@<TRIPOS>MOLECULE
*****
 28 30 0 0 0
SMALL
GASTEIGER

@<TRIPOS>ATOM
      1 N         141.5176  141.4287  166.2475 N.pl3   1  UNL1       -0.2616
      2 C         140.5374  142.2713  165.4863 C.ar    1  UNL1        0.0545
      3 C         139.9424  143.4912  166.1247 C.ar    1  UNL1        0.0149
      4 C         138.9623  144.3336  165.3634 C.ar    1  UNL1        0.0026
      5 C         138.5772  143.9562  163.9637 C.ar    1  UNL1        0.0184
      6 C         139.1722  142.7363  163.3253 C.ar    1  UNL1        0.1070
      7 C         140.1524  141.8938  164.0865 C.ar    1  UNL1        0.0332
      8 S         138.7872  142.3588  161.9255 S.O2    1  UNL1        0.0105
      9 C         138.4021  141.9813  160.5258 C.3     1  UNL1        0.1816
     10 O         139.5483  141.0736  162.0627 O.2     1  UNL1       -0.1686
     11 O         138.0260  143.6440  161.7883 O.2     1  UNL1       -0.1686
     12 P         141.0385  140.5344  167.3524 P.3     1  UNL1        0.2265
     13 O         140.5595  139.6400  168.4572 O.2     1  UNL1       -0.2903
     14 C         140.4833  139.5789  166.3381 C.ar    1  UNL1        0.0498
     15 C         141.4123  138.7871  165.4663 C.ar    1  UNL1        0.0046
     16 C         140.8571  137.8316  164.4520 C.ar    1  UNL1        0.0002
     17 C         139.3729  137.6678  164.3096 C.ar    1  UNL1        0.0000
     18 C         138.4439  138.4596  165.1814 C.ar    1  UNL1        0.0002
     19 C         138.9992  139.4151  166.1957 C.ar    1  UNL1        0.0046
     20 C         141.5938  141.4899  168.3666 C.ar    1  UNL1        0.0498
     21 C         143.0338  141.3963  168.7757 C.ar    1  UNL1        0.0046
     22 C         143.5890  142.3518  169.7899 C.ar    1  UNL1        0.0002
     23 C         142.7042  143.4010  170.3951 C.ar    1  UNL1        0.0000
     24 C         141.2641  143.4946  169.9860 C.ar    1  UNL1        0.0002
     25 C         140.7089  142.5391  168.9718 C.ar    1  UNL1        0.0046
     26 C         142.9768  141.4806  165.9040 C.3     1  UNL1        0.0974
     27 C         144.5316  143.5503  165.6826 C.3     1  UNL1        0.0018
     28 C         143.5156  142.6194  165.0898 C.3     1  UNL1        0.0218
@<TRIPOS>BOND
     1    27    28    1
     2    28    26    1
     3    26     1    1
     4     1     2    1
     5     2     3   ar
     6     3     4   ar
     7     4     5   ar
     8     5     6   ar
     9     6     8    1
    10     8     9    1
    11     8    10    2
    12     8    11    2
    13     6     7   ar
    14     1    12    1
    15    12    13    2
    16    12    14    1
    17    14    15   ar
    18    15    16   ar
    19    16    17   ar
    20    17    18   ar
    21    18    19   ar
    22    12    20    1
    23    20    21   ar
    24    21    22   ar
    25    22    23   ar
    26    23    24   ar
    27    24    25   ar
    28     7     2   ar
    29    19    14   ar
    30    25    20   ar
@<TRIPOS>MOLECULE
*****
 28 30 0 0 0
SMALL
GASTEIGER

@<TRIPOS>ATOM
      1 N         141.2180  141.4808  165.9550 N.pl3   1  UNL1       -0.2616
      2 C         140.5836  142.6553  165.2708 C.ar    1  UNL1        0.0545
      3 C         139.5425  143.4662  165.9838 C.ar    1  UNL1        0.0149
      4 C         138.9082  144.6407  165.2996 C.ar    1  UNL1        0.0026
      5 C         139.3149  145.0043  163.9024 C.ar    1  UNL1        0.0184
      6 C         140.3560  144.1934  163.1893 C.ar    1  UNL1        0.1070
      7 C         140.9903  143.0189  163.8735 C.ar    1  UNL1        0.0332
      8 S         140.7628  144.5569  161.7920 S.O2    1  UNL1        0.0105
      9 C         141.1695  144.9205  160.3948 C.3     1  UNL1        0.1816
     10 O         142.2035  144.5496  162.2095 O.2     1  UNL1       -0.1686
     11 O         139.3221  144.5642  161.3745 O.2     1  UNL1       -0.1686
     12 P         142.3056  141.6986  166.9647 P.3     1  UNL1        0.2265
     13 O         143.3933  141.9165  167.9744 O.2     1  UNL1       -0.2903
     14 C         143.3234  141.7231  165.8631 C.ar    1  UNL1        0.0498
     15 C         144.0267  143.0028  165.5200 C.ar    1  UNL1        0.0046
     16 C         145.0444  143.0272  164.4184 C.ar    1  UNL1        0.0002
     17 C         145.3589  141.7720  163.6599 C.ar    1  UNL1        0.0000
     18 C         144.6557  140.4923  164.0030 C.ar    1  UNL1        0.0002
     19 C         143.6379  140.4678  165.1046 C.ar    1  UNL1        0.0046
     20 C         141.2879  141.6742  168.0663 C.ar    1  UNL1        0.0498
     21 C         140.5084  140.4221  168.3396 C.ar    1  UNL1        0.0046
     22 C         139.4906  140.3977  169.4412 C.ar    1  UNL1        0.0002
     23 C         139.2523  141.6253  170.2695 C.ar    1  UNL1        0.0000
     24 C         140.0318  142.8773  169.9962 C.ar    1  UNL1        0.0002
     25 C         141.0495  142.9018  168.8946 C.ar    1  UNL1        0.0046
     26 C         140.7647  140.0885  165.6295 C.3     1  UNL1        0.0974
     27 C         138.2284  139.5251  165.6285 C.3     1  UNL1        0.0018
     28 C         139.4822  139.8727  164.8820 C.3     1  UNL1        0.0218
@<TRIPOS>BOND
     1    27    28    1
     2    28    26    1
     3    26     1    1
     4     1     2    1
     5     2     3   ar
     6     3     4   ar
     7     4     5   ar
     8     5     6   ar
     9     6     8    1
    10     8     9    1
    11     8    10    2
    12     8    11    2
    13     6     7   ar
    14     1    12    1
    15    12    13    2
    16    12    14    1
    17    14    15   ar
    18    15    16   ar
    19    16    17   ar
    20    17    18   ar
    21    18    19   ar
    22    12    20    1
    23    20    21   ar
    24    21    22   ar
    25    22    23   ar
    26    23    24   ar
    27    24    25   ar
    28     7     2   ar
    29    19    14   ar
    30    25    20   ar
@<TRIPOS>MOLECULE
*****
 28 30 0 0 0
SMALL
GASTEIGER

@<TRIPOS>ATOM
      1 N         141.5291  141.4128  166.2357 N.pl3   1  UNL1       -0.2616
      2 C         140.5773  142.2824  165.4689 C.ar    1  UNL1        0.0545
      3 C         139.9380  143.4643  166.1356 C.ar    1  UNL1        0.0149
      4 C         138.9864  144.3339  165.3688 C.ar    1  UNL1        0.0026
      5 C         138.6740  144.0217  163.9352 C.ar    1  UNL1        0.0184
      6 C         139.3133  142.8398  163.2686 C.ar    1  UNL1        0.1070
      7 C         140.2650  141.9702  164.0354 C.ar    1  UNL1        0.0332
      8 S         139.0010  142.5276  161.8350 S.O2    1  UNL1        0.0105
      9 C         138.6886  142.2154  160.4015 C.3     1  UNL1        0.1816
     10 O         137.8469  143.4849  161.8780 O.2     1  UNL1       -0.1686
     11 O         140.1550  141.5703  161.7921 O.2     1  UNL1       -0.1686
     12 P         141.0193  140.5354  167.3404 P.3     1  UNL1        0.2265
     13 O         140.5096  139.6581  168.4452 O.2     1  UNL1       -0.2903
     14 C         141.5914  141.4806  168.3550 C.ar    1  UNL1        0.0498
     15 C         143.0317  141.3665  168.7580 C.ar    1  UNL1        0.0046
     16 C         143.6038  142.3117  169.7725 C.ar    1  UNL1        0.0002
     17 C         142.7355  143.3709  170.3842 C.ar    1  UNL1        0.0000
     18 C         141.2952  143.4849  169.9813 C.ar    1  UNL1        0.0002
     19 C         140.7231  142.5398  168.9667 C.ar    1  UNL1        0.0046
     20 C         140.4472  139.5902  166.3258 C.ar    1  UNL1        0.0498
     21 C         141.3618  138.7608  165.4741 C.ar    1  UNL1        0.0046
     22 C         140.7897  137.8156  164.4595 C.ar    1  UNL1        0.0002
     23 C         139.3031  137.6999  164.2967 C.ar    1  UNL1        0.0000
     24 C         138.3886  138.5294  165.1484 C.ar    1  UNL1        0.0002
     25 C         138.9606  139.4746  166.1630 C.ar    1  UNL1        0.0046
     26 C         142.9905  141.4204  165.8978 C.3     1  UNL1        0.0974
     27 C         144.5079  143.5231  165.7359 C.3     1  UNL1        0.0018
     28 C         143.5682  142.5466  165.0928 C.3     1  UNL1        0.0218
@<TRIPOS>BOND
     1    27    28    1
     2    28    26    1
     3    26     1    1
     4     1     2    1
     5     2     3   ar
     6     3     4   ar
     7     4     5   ar
     8     5     6   ar
     9     6     8    1
    10     8     9    1
    11     8    10    2
    12     8    11    2
    13     6     7   ar
    14     1    12    1
    15    12    13    2
    16    12    14    1
    17    14    15   ar
    18    15    16   ar
    19    16    17   ar
    20    17    18   ar
    21    18    19   ar
    22    12    20    1
    23    20    21   ar
    24    21    22   ar
    25    22    23   ar
    26    23    24   ar
    27    24    25   ar
    28     7     2   ar
    29    19    14   ar
    30    25    20   ar
