@<TRIPOS>MOLECULE
*****
 40 45 0 0 0
SMALL
GASTEIGER

@<TRIPOS>ATOM
      1 C         141.7232  144.4584  158.8346 C.3     1  UNL1        0.0832
      2 C         142.2423  145.6621  158.1055 C.3     1  UNL1        0.0374
      3 C         141.5700  146.1241  156.8467 C.3     1  UNL1        0.0738
      4 N         140.3787  145.3824  156.3170 N.3     1  UNL1       -0.2722
      5 C         139.8596  144.1787  157.0460 C.3     1  UNL1        0.0829
      6 C         140.5319  143.7167  158.3048 C.3     1  UNL1        0.1103
      7 O         140.6479  145.3012  161.5054 O.2     1  UNL1       -0.2684
      8 C         141.8577  144.4177  161.4289 C.2     1  UNL1        0.2669
      9 N         142.3954  143.9963  160.0935 N.am    1  UNL1       -0.3006
     10 H         143.1895  143.4165  160.0432 H       1  UNL1        0.1497
     11 C         142.5299  143.9557  162.6877 C.ar    1  UNL1        0.1761
     12 C         142.0566  142.8513  163.5857 C.ar    1  UNL1        0.0673
     13 C         143.0276  142.7300  164.7226 C.ar    1  UNL1        0.1792
     14 O         144.1009  143.7595  164.5272 O.2     1  UNL1       -0.3532
     15 N         143.7933  144.5170  163.2696 N.ar    1  UNL1       -0.0723
     16 C         142.9405  141.7511  165.8558 C.ar    1  UNL1        0.0648
     17 C         142.7482  142.2439  167.2594 C.ar    1  UNL1        0.0077
     18 C         142.6611  141.2650  168.3926 C.ar    1  UNL1        0.0299
     19 C         142.7663  139.7934  168.1222 C.ar    1  UNL1        0.1424
     20 F         142.6792  138.8145  169.2554 F       1  UNL1       -0.2041
     21 C         142.9586  139.3006  166.7187 C.ar    1  UNL1        0.0593
     22 C         143.0457  140.2795  165.5854 C.ar    1  UNL1        0.1453
     23 F         143.2380  139.7867  164.1818 F       1  UNL1       -0.2040
     24 C         140.0128  142.5129  159.0339 C.2     1  UNL1        0.2252
     25 O         140.9220  141.3515  159.3068 O.2     1  UNL1       -0.2750
     26 N         138.5845  142.4706  159.4902 N.am    1  UNL1       -0.3010
     27 H         137.9877  143.2329  159.3111 H       1  UNL1        0.1497
     28 C         138.0654  141.2669  160.2193 C.3     1  UNL1        0.1089
     29 C         137.5673  139.8733  160.4637 C.3     1  UNL1        0.0274
     30 C         137.9457  140.3020  159.0770 C.3     1  UNL1        0.0274
     31 C         138.0047  141.8137  161.6147 C.ar    1  UNL1        0.1549
     32 N         137.8793  143.2919  161.8362 N.ar    1  UNL1       -0.2276
     33 C         137.8186  143.8388  163.2317 C.ar    1  UNL1        0.1019
     34 C         137.8833  142.9073  164.4056 C.ar    1  UNL1        0.0413
     35 C         138.0087  141.4291  164.1841 C.ar    1  UNL1        0.1019
     36 N         138.0694  140.8822  162.7887 N.ar    1  UNL1       -0.2276
     37 C         139.7065  145.8445  155.0581 C.3     1  UNL1        0.0721
     38 C         139.6059  147.3103  154.7562 C.3     1  UNL1        0.0160
     39 C         139.1037  148.6783  155.1115 C.3     1  UNL1        0.0014
     40 C         139.9339  148.4812  153.8779 C.3     1  UNL1        0.0014
@<TRIPOS>BOND
     1     7     8    2
     2     8     9   am
     3     1     9    1
     4     1     2    1
     5     2     3    1
     6     3     4    1
     7     4    37    1
     8    37    38    1
     9    38    39    1
    10    39    40    1
    11     4     5    1
    12     5     6    1
    13     6    24    1
    14    24    25    2
    15    24    26   am
    16    26    28    1
    17    28    31    1
    18    31    32   ar
    19    32    33   ar
    20    33    34   ar
    21    34    35   ar
    22    35    36   ar
    23    28    29    1
    24    29    30    1
    25     8    11    1
    26    11    12   ar
    27    12    13   ar
    28    13    16    1
    29    16    17   ar
    30    17    18   ar
    31    18    19   ar
    32    19    20    1
    33    19    21   ar
    34    21    22   ar
    35    22    23    1
    36    13    14   ar
    37    14    15   ar
    38     6     1    1
    39    30    28    1
    40    15    11   ar
    41    40    38    1
    42    36    31   ar
    43    22    16   ar
    44     9    10    1
    45    26    27    1
@<TRIPOS>MOLECULE
*****
 40 45 0 0 0
SMALL
GASTEIGER

@<TRIPOS>ATOM
      1 C         141.1838  143.7407  160.7771 C.3     1  UNL1        0.0832
      2 C         140.9685  145.1694  160.3743 C.3     1  UNL1        0.0374
      3 C         140.7890  145.5217  158.9273 C.3     1  UNL1        0.0738
      4 N         140.8248  144.4453  157.8833 N.3     1  UNL1       -0.2722
      5 C         141.0400  143.0166  158.2862 C.3     1  UNL1        0.0829
      6 C         141.2195  142.6643  159.7331 C.3     1  UNL1        0.1103
      7 O         143.8841  143.9952  162.0591 O.2     1  UNL1       -0.2684
      8 C         142.7134  143.5156  162.8651 C.2     1  UNL1        0.2669
      9 N         141.3633  143.3883  162.2241 N.am    1  UNL1       -0.3006
     10 H         140.5949  143.0736  162.7531 H       1  UNL1        0.1497
     11 C         142.8930  143.1632  164.3120 C.ar    1  UNL1        0.1761
     12 C         141.9123  142.4151  165.1656 C.ar    1  UNL1        0.0673
     13 C         142.4979  142.2867  166.5405 C.ar    1  UNL1        0.1792
     14 O         143.8407  142.9554  166.5367 O.2     1  UNL1       -0.3532
     15 N         144.0848  143.4971  165.1594 N.ar    1  UNL1       -0.0723
     16 C         141.8540  141.6086  167.7133 C.ar    1  UNL1        0.0648
     17 C         142.4030  140.3088  168.2225 C.ar    1  UNL1        0.0077
     18 C         141.7591  139.6307  169.3953 C.ar    1  UNL1        0.0299
     19 C         140.5662  140.2524  170.0589 C.ar    1  UNL1        0.1424
     20 F         139.9222  139.5743  171.2318 F       1  UNL1       -0.2041
     21 C         140.0172  141.5521  169.5498 C.ar    1  UNL1        0.0593
     22 C         140.6611  142.2302  168.3770 C.ar    1  UNL1        0.1453
     23 F         140.1121  143.5299  167.8678 F       1  UNL1       -0.2040
     24 C         141.4347  141.2355  160.1361 C.2     1  UNL1        0.2252
     25 O         140.3298  140.4690  160.8006 O.2     1  UNL1       -0.2750
     26 N         142.7549  140.5732  159.8744 N.am    1  UNL1       -0.3010
     27 H         143.4801  141.0763  159.4383 H       1  UNL1        0.1497
     28 C         142.9702  139.1445  160.2774 C.3     1  UNL1        0.1089
     29 C         143.0191  137.6478  160.1913 C.3     1  UNL1        0.0274
     30 C         142.5659  138.4525  159.0093 C.3     1  UNL1        0.0274
     31 C         143.4492  139.3402  161.6852 C.ar    1  UNL1        0.1549
     32 N         142.8120  138.5756  162.8074 N.ar    1  UNL1       -0.2276
     33 C         143.2911  138.7713  164.2154 C.ar    1  UNL1        0.1019
     34 C         144.4073  139.7316  164.5011 C.ar    1  UNL1        0.0413
     35 C         145.0446  140.4962  163.3789 C.ar    1  UNL1        0.1019
     36 N         144.5656  140.3005  161.9710 N.ar    1  UNL1       -0.2276
     37 C         140.6453  144.7977  156.4363 C.3     1  UNL1        0.0721
     38 C         139.6428  145.8395  156.0369 C.3     1  UNL1        0.0160
     39 C         139.1237  147.2440  156.1249 C.3     1  UNL1        0.0014
     40 C         138.4255  146.2394  155.2570 C.3     1  UNL1        0.0014
@<TRIPOS>BOND
     1     7     8    2
     2     8     9   am
     3     1     9    1
     4     1     2    1
     5     2     3    1
     6     3     4    1
     7     4    37    1
     8    37    38    1
     9    38    39    1
    10    39    40    1
    11     4     5    1
    12     5     6    1
    13     6    24    1
    14    24    25    2
    15    24    26   am
    16    26    28    1
    17    28    31    1
    18    31    32   ar
    19    32    33   ar
    20    33    34   ar
    21    34    35   ar
    22    35    36   ar
    23    28    29    1
    24    29    30    1
    25     8    11    1
    26    11    12   ar
    27    12    13   ar
    28    13    16    1
    29    16    17   ar
    30    17    18   ar
    31    18    19   ar
    32    19    20    1
    33    19    21   ar
    34    21    22   ar
    35    22    23    1
    36    13    14   ar
    37    14    15   ar
    38     6     1    1
    39    30    28    1
    40    15    11   ar
    41    40    38    1
    42    36    31   ar
    43    22    16   ar
    44     9    10    1
    45    26    27    1
@<TRIPOS>MOLECULE
*****
 40 45 0 0 0
SMALL
GASTEIGER

@<TRIPOS>ATOM
      1 C         142.1773  139.4017  164.4490 C.3     1  UNL1        0.0832
      2 C         142.9775  138.4487  165.2865 C.3     1  UNL1        0.0374
      3 C         143.1222  138.6852  166.7606 C.3     1  UNL1        0.0738
      4 N         142.4669  139.8748  167.3973 N.3     1  UNL1       -0.2722
      5 C         141.6667  140.8279  166.5598 C.3     1  UNL1        0.0829
      6 C         141.5219  140.5913  165.0857 C.3     1  UNL1        0.1103
      7 O         144.4961  139.9074  162.6139 O.2     1  UNL1       -0.2684
      8 C         143.1919  139.4180  162.0573 C.2     1  UNL1        0.2669
      9 N         142.0325  139.1652  162.9748 N.am    1  UNL1       -0.3006
     10 H         141.1766  138.8441  162.6095 H       1  UNL1        0.1497
     11 C         143.0471  139.1816  160.5832 C.ar    1  UNL1        0.1761
     12 C         141.7940  138.7555  159.8774 C.ar    1  UNL1        0.0673
     13 C         142.1025  138.6403  158.4140 C.ar    1  UNL1        0.1792
     14 O         143.5463  138.9951  158.2153 O.2     1  UNL1       -0.3532
     15 N         144.1301  139.3296  159.5560 N.ar    1  UNL1       -0.0723
     16 C         141.1367  138.2404  157.3382 C.ar    1  UNL1        0.0648
     17 C         140.0131  139.1592  156.9595 C.ar    1  UNL1        0.0077
     18 C         139.0474  138.7594  155.8837 C.ar    1  UNL1        0.0299
     19 C         139.2052  137.4407  155.1865 C.ar    1  UNL1        0.1424
     20 F         138.2395  137.0408  154.1107 F       1  UNL1       -0.2041
     21 C         140.3288  136.5219  155.5651 C.ar    1  UNL1        0.0593
     22 C         141.2945  136.9218  156.6409 C.ar    1  UNL1        0.1453
     23 F         142.4181  136.0029  157.0196 F       1  UNL1       -0.2040
     24 C         140.7217  141.5444  164.2482 C.2     1  UNL1        0.2252
     25 O         141.4121  142.4327  163.2561 O.2     1  UNL1       -0.2750
     26 N         139.2311  141.6091  164.4027 N.am    1  UNL1       -0.3010
     27 H         138.7780  141.0261  165.0539 H       1  UNL1        0.1497
     28 C         138.4309  142.5622  163.5653 C.3     1  UNL1        0.1089
     29 C         137.6875  143.8003  163.1600 C.3     1  UNL1        0.0274
     30 C         138.3166  143.7142  164.5191 C.3     1  UNL1        0.0274
     31 C         138.2673  141.7411  162.3207 C.ar    1  UNL1        0.1549
     32 N         137.7610  140.3322  162.4128 N.ar    1  UNL1       -0.2276
     33 C         137.5973  139.5110  161.1681 C.ar    1  UNL1        0.1019
     34 C         137.9401  140.0989  159.8314 C.ar    1  UNL1        0.0413
     35 C         138.4465  141.5079  159.7393 C.ar    1  UNL1        0.1019
     36 N         138.6101  142.3290  160.9839 N.ar    1  UNL1       -0.2276
     37 C         142.6117  140.1113  168.8714 C.3     1  UNL1        0.0721
     38 C         142.9749  141.4748  169.3802 C.3     1  UNL1        0.0160
     39 C         142.5624  142.8370  169.8539 C.3     1  UNL1        0.0014
     40 C         144.0164  142.4744  169.7876 C.3     1  UNL1        0.0014
@<TRIPOS>BOND
     1     7     8    2
     2     8     9   am
     3     1     9    1
     4     1     2    1
     5     2     3    1
     6     3     4    1
     7     4    37    1
     8    37    38    1
     9    38    39    1
    10    39    40    1
    11     4     5    1
    12     5     6    1
    13     6    24    1
    14    24    25    2
    15    24    26   am
    16    26    28    1
    17    28    31    1
    18    31    32   ar
    19    32    33   ar
    20    33    34   ar
    21    34    35   ar
    22    35    36   ar
    23    28    29    1
    24    29    30    1
    25     8    11    1
    26    11    12   ar
    27    12    13   ar
    28    13    16    1
    29    16    17   ar
    30    17    18   ar
    31    18    19   ar
    32    19    20    1
    33    19    21   ar
    34    21    22   ar
    35    22    23    1
    36    13    14   ar
    37    14    15   ar
    38     6     1    1
    39    30    28    1
    40    15    11   ar
    41    40    38    1
    42    36    31   ar
    43    22    16   ar
    44     9    10    1
    45    26    27    1
@<TRIPOS>MOLECULE
*****
 40 45 0 0 0
SMALL
GASTEIGER

@<TRIPOS>ATOM
      1 C         139.3684  140.2465  164.5700 C.3     1  UNL1        0.0832
      2 C         138.3781  139.4554  165.3721 C.3     1  UNL1        0.0374
      3 C         138.4562  139.4545  166.8701 C.3     1  UNL1        0.0738
      4 N         139.5246  140.2447  167.5659 N.3     1  UNL1       -0.2722
      5 C         140.5149  141.0357  166.7637 C.3     1  UNL1        0.0829
      6 C         140.4368  141.0367  165.2658 C.3     1  UNL1        0.1103
      7 O         137.1755  141.7527  163.1833 O.2     1  UNL1       -0.2684
      8 C         138.1938  141.0005  162.3786 C.2     1  UNL1        0.2669
      9 N         139.2903  140.2475  163.0720 N.am    1  UNL1       -0.3006
     10 H         139.9586  139.7538  162.5439 H       1  UNL1        0.1497
     11 C         138.1157  141.0015  160.8807 C.ar    1  UNL1        0.1761
     12 C         138.5547  142.1142  159.9756 C.ar    1  UNL1        0.0673
     13 C         138.2952  141.6904  158.5604 C.ar    1  UNL1        0.1792
     14 O         137.6958  140.3156  158.5908 O.2     1  UNL1       -0.3532
     15 N         137.5849  139.8899  160.0248 N.ar    1  UNL1       -0.0723
     16 C         138.5843  142.4992  157.3306 C.ar    1  UNL1        0.0648
     17 C         139.9013  143.2030  157.1883 C.ar    1  UNL1        0.0077
     18 C         140.1903  144.0118  155.9586 C.ar    1  UNL1        0.0299
     19 C         139.1624  144.1168  154.8712 C.ar    1  UNL1        0.1424
     20 F         139.4515  144.9256  153.6415 F       1  UNL1       -0.2041
     21 C         137.8455  143.4130  155.0136 C.ar    1  UNL1        0.0593
     22 C         137.5564  142.6042  156.2433 C.ar    1  UNL1        0.1453
     23 F         136.2394  141.9005  156.3856 F       1  UNL1       -0.2040
     24 C         141.4271  141.8278  164.4636 C.2     1  UNL1        0.2252
     25 O         142.1786  141.1727  163.3428 O.2     1  UNL1       -0.2750
     26 N         141.6659  143.2740  164.7821 N.am    1  UNL1       -0.3010
     27 H         141.1727  143.7039  165.5177 H       1  UNL1        0.1497
     28 C         142.6562  144.0651  163.9800 C.3     1  UNL1        0.1089
     29 C         143.9561  144.6843  163.5598 C.3     1  UNL1        0.0274
     30 C         143.8919  143.8449  164.8014 C.3     1  UNL1        0.0274
     31 C         141.7644  144.5599  162.8801 C.ar    1  UNL1        0.1549
     32 N         140.4308  145.1622  163.2096 N.ar    1  UNL1       -0.2276
     33 C         139.5389  145.6572  162.1096 C.ar    1  UNL1        0.1019
     34 C         139.9808  145.5498  160.6803 C.ar    1  UNL1        0.0413
     35 C         141.3145  144.9475  160.3508 C.ar    1  UNL1        0.1019
     36 N         142.2063  144.4525  161.4507 N.ar    1  UNL1       -0.2276
     37 C         139.6027  140.2437  169.0639 C.3     1  UNL1        0.0721
     38 C         140.0341  141.4814  169.7932 C.3     1  UNL1        0.0160
     39 C         140.1367  142.9760  169.8677 C.3     1  UNL1        0.0014
     40 C         140.6788  142.1306  170.9818 C.3     1  UNL1        0.0014
@<TRIPOS>BOND
     1     7     8    2
     2     8     9   am
     3     1     9    1
     4     1     2    1
     5     2     3    1
     6     3     4    1
     7     4    37    1
     8    37    38    1
     9    38    39    1
    10    39    40    1
    11     4     5    1
    12     5     6    1
    13     6    24    1
    14    24    25    2
    15    24    26   am
    16    26    28    1
    17    28    31    1
    18    31    32   ar
    19    32    33   ar
    20    33    34   ar
    21    34    35   ar
    22    35    36   ar
    23    28    29    1
    24    29    30    1
    25     8    11    1
    26    11    12   ar
    27    12    13   ar
    28    13    16    1
    29    16    17   ar
    30    17    18   ar
    31    18    19   ar
    32    19    20    1
    33    19    21   ar
    34    21    22   ar
    35    22    23    1
    36    13    14   ar
    37    14    15   ar
    38     6     1    1
    39    30    28    1
    40    15    11   ar
    41    40    38    1
    42    36    31   ar
    43    22    16   ar
    44     9    10    1
    45    26    27    1
@<TRIPOS>MOLECULE
*****
 40 45 0 0 0
SMALL
GASTEIGER

@<TRIPOS>ATOM
      1 C         139.9184  139.8626  164.4121 C.3     1  UNL1        0.0832
      2 C         138.9766  139.1322  165.3227 C.3     1  UNL1        0.0374
      3 C         138.9258  139.4766  166.7817 C.3     1  UNL1        0.0738
      4 N         139.8168  140.5516  167.3300 N.3     1  UNL1       -0.2722
      5 C         140.7586  141.2821  166.4193 C.3     1  UNL1        0.0829
      6 C         140.8094  140.9376  164.9604 C.3     1  UNL1        0.1103
      7 O         137.8030  140.8954  162.5524 O.2     1  UNL1       -0.2684
      8 C         138.9115  140.0345  162.0232 C.2     1  UNL1        0.2669
      9 N         139.9693  139.5181  162.9530 N.am    1  UNL1       -0.3006
     10 H         140.6969  138.9532  162.6056 H       1  UNL1        0.1497
     11 C         138.9623  139.6901  160.5642 C.ar    1  UNL1        0.1761
     12 C         139.9463  138.7659  159.9101 C.ar    1  UNL1        0.0673
     13 C         139.6302  138.7140  158.4448 C.ar    1  UNL1        0.1792
     14 O         138.4509  139.6061  158.1931 O.2     1  UNL1       -0.3532
     15 N         138.0381  140.2094  159.5030 N.ar    1  UNL1       -0.0723
     16 C         140.3645  137.9110  157.4123 C.ar    1  UNL1        0.0648
     17 C         139.6053  137.2304  156.3121 C.ar    1  UNL1        0.0077
     18 C         140.3395  136.4274  155.2796 C.ar    1  UNL1        0.0299
     19 C         141.8330  136.3049  155.3474 C.ar    1  UNL1        0.1424
     20 F         142.5673  135.5019  154.3149 F       1  UNL1       -0.2041
     21 C         142.5921  136.9855  156.4476 C.ar    1  UNL1        0.0593
     22 C         141.8579  137.7885  157.4800 C.ar    1  UNL1        0.1453
     23 F         142.6170  138.4690  158.5802 F       1  UNL1       -0.2040
     24 C         141.7512  141.6681  164.0496 C.2     1  UNL1        0.2252
     25 O         142.3735  140.9550  162.8859 O.2     1  UNL1       -0.2750
     26 N         142.0707  143.1116  164.3026 N.am    1  UNL1       -0.3010
     27 H         141.6623  143.5797  165.0664 H       1  UNL1        0.1497
     28 C         143.0125  143.8421  163.3919 C.3     1  UNL1        0.1089
     29 C         144.2962  144.3497  162.8049 C.3     1  UNL1        0.0274
     30 C         144.3240  143.4540  164.0079 C.3     1  UNL1        0.0274
     31 C         142.0282  144.4838  162.4596 C.ar    1  UNL1        0.1549
     32 N         142.2299  144.3913  160.9761 N.ar    1  UNL1       -0.2276
     33 C         141.2455  145.0330  160.0438 C.ar    1  UNL1        0.1019
     34 C         140.0594  145.7673  160.5950 C.ar    1  UNL1        0.0413
     35 C         139.8577  145.8599  162.0785 C.ar    1  UNL1        0.1019
     36 N         140.8420  145.2182  163.0108 N.ar    1  UNL1       -0.2276
     37 C         139.7660  140.8961  168.7891 C.3     1  UNL1        0.0721
     38 C         140.4100  142.1567  169.2850 C.3     1  UNL1        0.0160
     39 C         140.3402  143.6295  169.5609 C.3     1  UNL1        0.0014
     40 C         141.5952  142.8676  169.8679 C.3     1  UNL1        0.0014
@<TRIPOS>BOND
     1     7     8    2
     2     8     9   am
     3     1     9    1
     4     1     2    1
     5     2     3    1
     6     3     4    1
     7     4    37    1
     8    37    38    1
     9    38    39    1
    10    39    40    1
    11     4     5    1
    12     5     6    1
    13     6    24    1
    14    24    25    2
    15    24    26   am
    16    26    28    1
    17    28    31    1
    18    31    32   ar
    19    32    33   ar
    20    33    34   ar
    21    34    35   ar
    22    35    36   ar
    23    28    29    1
    24    29    30    1
    25     8    11    1
    26    11    12   ar
    27    12    13   ar
    28    13    16    1
    29    16    17   ar
    30    17    18   ar
    31    18    19   ar
    32    19    20    1
    33    19    21   ar
    34    21    22   ar
    35    22    23    1
    36    13    14   ar
    37    14    15   ar
    38     6     1    1
    39    30    28    1
    40    15    11   ar
    41    40    38    1
    42    36    31   ar
    43    22    16   ar
    44     9    10    1
    45    26    27    1
@<TRIPOS>MOLECULE
*****
 40 45 0 0 0
SMALL
GASTEIGER

@<TRIPOS>ATOM
      1 C         142.9172  140.9774  160.0171 C.3     1  UNL1        0.0832
      2 C         143.6300  140.0244  159.1041 C.3     1  UNL1        0.0374
      3 C         144.2765  140.5303  157.8487 C.3     1  UNL1        0.0738
      4 N         144.2103  141.9892  157.5064 N.3     1  UNL1       -0.2722
      5 C         143.4975  142.9422  158.4195 C.3     1  UNL1        0.0829
      6 C         142.8510  142.4363  159.6748 C.3     1  UNL1        0.1103
      7 O         144.5931  140.3855  162.4340 O.2     1  UNL1       -0.2684
      8 C         143.1085  140.1755  162.4810 C.2     1  UNL1        0.2669
      9 N         142.2706  140.4715  161.2726 N.am    1  UNL1       -0.3006
     10 H         141.2963  140.3337  161.3034 H       1  UNL1        0.1497
     11 C         142.4620  139.6696  163.7364 C.ar    1  UNL1        0.1761
     12 C         142.4770  140.3515  165.0724 C.ar    1  UNL1        0.0673
     13 C         141.7112  139.4964  166.0379 C.ar    1  UNL1        0.1792
     14 O         141.2229  138.2860  165.2986 O.2     1  UNL1       -0.3532
     15 N         141.6869  138.3931  163.8762 N.ar    1  UNL1       -0.0723
     16 C         141.4752  139.7985  167.4881 C.ar    1  UNL1        0.0648
     17 C         142.6360  139.8902  168.4337 C.ar    1  UNL1        0.0077
     18 C         142.4000  140.1924  169.8838 C.ar    1  UNL1        0.0299
     19 C         141.0031  140.4028  170.3884 C.ar    1  UNL1        0.1424
     20 F         140.7671  140.7049  171.8385 F       1  UNL1       -0.2041
     21 C         139.8424  140.3111  169.4428 C.ar    1  UNL1        0.0593
     22 C         140.0784  140.0089  167.9927 C.ar    1  UNL1        0.1453
     23 F         138.9176  139.9172  167.0470 F       1  UNL1       -0.2040
     24 C         142.1381  143.3893  160.5880 C.2     1  UNL1        0.2252
     25 O         142.9135  144.1814  161.5986 O.2     1  UNL1       -0.2750
     26 N         140.6500  143.5502  160.4903 N.am    1  UNL1       -0.3010
     27 H         140.1411  143.0303  159.8270 H       1  UNL1        0.1497
     28 C         139.9372  144.5031  161.4034 C.3     1  UNL1        0.1089
     29 C         139.4314  145.7933  161.9777 C.3     1  UNL1        0.0274
     30 C         140.2860  145.8050  160.7449 C.3     1  UNL1        0.0274
     31 C         139.3408  143.5323  162.3790 C.ar    1  UNL1        0.1549
     32 N         140.0813  143.1811  163.6353 N.ar    1  UNL1       -0.2276
     33 C         139.4849  142.2102  164.6110 C.ar    1  UNL1        0.1019
     34 C         138.1480  141.5907  164.3302 C.ar    1  UNL1        0.0413
     35 C         137.4075  141.9419  163.0739 C.ar    1  UNL1        0.1019
     36 N         138.0039  142.9127  162.0983 N.ar    1  UNL1       -0.2276
     37 C         144.8569  142.4951  156.2510 C.3     1  UNL1        0.0721
     38 C         146.3038  142.2044  155.9830 C.3     1  UNL1        0.0160
     39 C         147.3598  141.4614  155.2196 C.3     1  UNL1        0.0014
     40 C         147.7540  142.4440  156.2821 C.3     1  UNL1        0.0014
@<TRIPOS>BOND
     1     7     8    2
     2     8     9   am
     3     1     9    1
     4     1     2    1
     5     2     3    1
     6     3     4    1
     7     4    37    1
     8    37    38    1
     9    38    39    1
    10    39    40    1
    11     4     5    1
    12     5     6    1
    13     6    24    1
    14    24    25    2
    15    24    26   am
    16    26    28    1
    17    28    31    1
    18    31    32   ar
    19    32    33   ar
    20    33    34   ar
    21    34    35   ar
    22    35    36   ar
    23    28    29    1
    24    29    30    1
    25     8    11    1
    26    11    12   ar
    27    12    13   ar
    28    13    16    1
    29    16    17   ar
    30    17    18   ar
    31    18    19   ar
    32    19    20    1
    33    19    21   ar
    34    21    22   ar
    35    22    23    1
    36    13    14   ar
    37    14    15   ar
    38     6     1    1
    39    30    28    1
    40    15    11   ar
    41    40    38    1
    42    36    31   ar
    43    22    16   ar
    44     9    10    1
    45    26    27    1
@<TRIPOS>MOLECULE
*****
 40 45 0 0 0
SMALL
GASTEIGER

@<TRIPOS>ATOM
      1 C         139.5813  141.8782  160.3732 C.3     1  UNL1        0.0832
      2 C         138.4796  141.4191  159.4647 C.3     1  UNL1        0.0374
      3 C         138.2485  142.1139  158.1557 C.3     1  UNL1        0.0738
      4 N         139.1190  143.2680  157.7551 N.3     1  UNL1       -0.2722
      5 C         140.2206  143.7271  158.6637 C.3     1  UNL1        0.0829
      6 C         140.4518  143.0323  159.9727 C.3     1  UNL1        0.1103
      7 O         137.4080  141.8113  162.4402 O.2     1  UNL1       -0.2684
      8 C         138.7258  141.1499  162.7159 C.2     1  UNL1        0.2669
      9 N         139.8125  141.1833  161.6824 N.am    1  UNL1       -0.3006
     10 H         140.6774  140.7492  161.8633 H       1  UNL1        0.1497
     11 C         138.9569  140.4550  164.0249 C.ar    1  UNL1        0.1761
     12 C         139.6757  141.0259  165.2113 C.ar    1  UNL1        0.0673
     13 C         139.6729  139.9910  166.2971 C.ar    1  UNL1        0.1792
     14 O         138.9523  138.7805  165.7818 O.2     1  UNL1       -0.3532
     15 N         138.5098  139.0673  164.3775 N.ar    1  UNL1       -0.0723
     16 C         140.2834  140.1404  167.6591 C.ar    1  UNL1        0.0648
     17 C         139.4021  140.2855  168.8642 C.ar    1  UNL1        0.0077
     18 C         140.0126  140.4348  170.2262 C.ar    1  UNL1        0.0299
     19 C         141.5044  140.4390  170.3830 C.ar    1  UNL1        0.1424
     20 F         142.1149  140.5884  171.7449 F       1  UNL1       -0.2041
     21 C         142.3856  140.2939  169.1779 C.ar    1  UNL1        0.0593
     22 C         141.7751  140.1446  167.8160 C.ar    1  UNL1        0.1453
     23 F         142.6564  139.9995  166.6108 F       1  UNL1       -0.2040
     24 C         141.5535  143.4914  160.8814 C.2     1  UNL1        0.2252
     25 O         142.8416  143.9968  160.3023 O.2     1  UNL1       -0.2750
     26 N         141.3670  143.4451  162.3690 N.am    1  UNL1       -0.3010
     27 H         140.5215  143.1134  162.7490 H       1  UNL1        0.1497
     28 C         142.4686  143.9042  163.2776 C.3     1  UNL1        0.1089
     29 C         143.2914  144.8021  164.1532 C.3     1  UNL1        0.0274
     30 C         142.0484  145.3272  163.4980 C.3     1  UNL1        0.0274
     31 C         143.2714  142.6407  163.3728 C.ar    1  UNL1        0.1549
     32 N         144.7631  142.7088  163.5139 N.ar    1  UNL1       -0.2276
     33 C         145.5660  141.4453  163.6091 C.ar    1  UNL1        0.1019
     34 C         144.8770  140.1137  163.5632 C.ar    1  UNL1        0.0413
     35 C         143.3852  140.0456  163.4221 C.ar    1  UNL1        0.1019
     36 N         142.5823  141.3091  163.3269 N.ar    1  UNL1       -0.2276
     37 C         138.8878  143.9629  156.4460 C.3     1  UNL1        0.0721
     38 C         139.4873  145.3154  156.1987 C.3     1  UNL1        0.0160
     39 C         139.6436  146.7570  156.5826 C.3     1  UNL1        0.0014
     40 C         140.3695  146.2164  155.3864 C.3     1  UNL1        0.0014
@<TRIPOS>BOND
     1     7     8    2
     2     8     9   am
     3     1     9    1
     4     1     2    1
     5     2     3    1
     6     3     4    1
     7     4    37    1
     8    37    38    1
     9    38    39    1
    10    39    40    1
    11     4     5    1
    12     5     6    1
    13     6    24    1
    14    24    25    2
    15    24    26   am
    16    26    28    1
    17    28    31    1
    18    31    32   ar
    19    32    33   ar
    20    33    34   ar
    21    34    35   ar
    22    35    36   ar
    23    28    29    1
    24    29    30    1
    25     8    11    1
    26    11    12   ar
    27    12    13   ar
    28    13    16    1
    29    16    17   ar
    30    17    18   ar
    31    18    19   ar
    32    19    20    1
    33    19    21   ar
    34    21    22   ar
    35    22    23    1
    36    13    14   ar
    37    14    15   ar
    38     6     1    1
    39    30    28    1
    40    15    11   ar
    41    40    38    1
    42    36    31   ar
    43    22    16   ar
    44     9    10    1
    45    26    27    1
@<TRIPOS>MOLECULE
*****
 40 45 0 0 0
SMALL
GASTEIGER

@<TRIPOS>ATOM
      1 C         142.2470  139.3170  161.1009 C.3     1  UNL1        0.0832
      2 C         142.5332  137.9750  160.4951 C.3     1  UNL1        0.0374
      3 C         142.7802  137.8552  159.0204 C.3     1  UNL1        0.0738
      4 N         142.7411  139.0773  158.1517 N.3     1  UNL1       -0.2722
      5 C         142.4550  140.4194  158.7575 C.3     1  UNL1        0.0829
      6 C         142.2079  140.5392  160.2321 C.3     1  UNL1        0.1103
      7 O         144.5570  139.2990  163.0151 O.2     1  UNL1       -0.2684
      8 C         143.1550  139.4279  163.5327 C.2     1  UNL1        0.2669
      9 N         142.0000  139.4369  162.5756 N.am    1  UNL1       -0.3006
     10 H         141.0798  139.5215  162.9153 H       1  UNL1        0.1497
     11 C         142.9080  139.5478  165.0073 C.ar    1  UNL1        0.1761
     12 C         142.0422  140.5743  165.6757 C.ar    1  UNL1        0.0673
     13 C         142.0825  140.3232  167.1540 C.ar    1  UNL1        0.1792
     14 O         142.9733  139.1414  167.3992 O.2     1  UNL1       -0.3532
     15 N         143.4834  138.6622  166.0725 N.ar    1  UNL1       -0.0723
     16 C         141.3592  141.1147  168.2029 C.ar    1  UNL1        0.0648
     17 C         141.9575  142.3857  168.7289 C.ar    1  UNL1        0.0077
     18 C         141.2342  143.1773  169.7778 C.ar    1  UNL1        0.0299
     19 C         139.9125  142.6979  170.3006 C.ar    1  UNL1        0.1424
     20 F         139.1891  143.4894  171.3495 F       1  UNL1       -0.2041
     21 C         139.3142  141.4270  169.7746 C.ar    1  UNL1        0.0593
     22 C         140.0376  140.6354  168.7257 C.ar    1  UNL1        0.1453
     23 F         139.4392  139.3645  168.1997 F       1  UNL1       -0.2040
     24 C         141.9218  141.8813  160.8381 C.2     1  UNL1        0.2252
     25 O         142.8304  142.4362  161.8947 O.2     1  UNL1       -0.2750
     26 N         140.7271  142.6683  160.3873 N.am    1  UNL1       -0.3010
     27 H         140.1308  142.3041  159.6938 H       1  UNL1        0.1497
     28 C         140.4409  144.0103  160.9932 C.3     1  UNL1        0.1089
     29 C         140.4418  145.4974  161.1892 C.3     1  UNL1        0.0274
     30 C         141.1680  144.8942  160.0235 C.3     1  UNL1        0.0274
     31 C         139.6146  143.5925  162.1732 C.ar    1  UNL1        0.1549
     32 N         138.2971  142.9074  161.9613 N.ar    1  UNL1       -0.2276
     33 C         137.4706  142.4896  163.1414 C.ar    1  UNL1        0.1019
     34 C         137.9617  142.7569  164.5333 C.ar    1  UNL1        0.0413
     35 C         139.2792  143.4420  164.7451 C.ar    1  UNL1        0.1019
     36 N         140.1056  143.8598  163.5651 N.ar    1  UNL1       -0.2276
     37 C         142.9881  138.9575  156.6770 C.3     1  UNL1        0.0721
     38 C         143.1716  137.6050  156.0548 C.3     1  UNL1        0.0160
     39 C         144.0618  136.4572  155.6805 C.3     1  UNL1        0.0014
     40 C         142.5992  136.4102  155.3514 C.3     1  UNL1        0.0014
@<TRIPOS>BOND
     1     7     8    2
     2     8     9   am
     3     1     9    1
     4     1     2    1
     5     2     3    1
     6     3     4    1
     7     4    37    1
     8    37    38    1
     9    38    39    1
    10    39    40    1
    11     4     5    1
    12     5     6    1
    13     6    24    1
    14    24    25    2
    15    24    26   am
    16    26    28    1
    17    28    31    1
    18    31    32   ar
    19    32    33   ar
    20    33    34   ar
    21    34    35   ar
    22    35    36   ar
    23    28    29    1
    24    29    30    1
    25     8    11    1
    26    11    12   ar
    27    12    13   ar
    28    13    16    1
    29    16    17   ar
    30    17    18   ar
    31    18    19   ar
    32    19    20    1
    33    19    21   ar
    34    21    22   ar
    35    22    23    1
    36    13    14   ar
    37    14    15   ar
    38     6     1    1
    39    30    28    1
    40    15    11   ar
    41    40    38    1
    42    36    31   ar
    43    22    16   ar
    44     9    10    1
    45    26    27    1
@<TRIPOS>MOLECULE
*****
 40 45 0 0 0
SMALL
GASTEIGER

@<TRIPOS>ATOM
      1 C         141.8262  139.1653  161.0764 C.3     1  UNL1        0.0832
      2 C         142.4092  137.8146  160.7839 C.3     1  UNL1        0.0374
      3 C         142.7822  137.4472  159.3783 C.3     1  UNL1        0.0738
      4 N         142.5722  138.4305  158.2652 N.3     1  UNL1       -0.2722
      5 C         141.9892  139.7812  158.5577 C.3     1  UNL1        0.0829
      6 C         141.6162  140.1486  159.9633 C.3     1  UNL1        0.1103
      7 O         139.3520  138.0131  162.3216 O.2     1  UNL1       -0.2684
      8 C         140.2160  138.9567  163.1047 C.2     1  UNL1        0.2669
      9 N         141.4531  139.5328  162.4821 N.am    1  UNL1       -0.3006
     10 H         142.0202  140.1522  162.9960 H       1  UNL1        0.1497
     11 C         139.8429  139.3242  164.5103 C.ar    1  UNL1        0.1761
     12 C         140.7526  139.9398  165.5317 C.ar    1  UNL1        0.0673
     13 C         139.9665  140.1366  166.7940 C.ar    1  UNL1        0.1792
     14 O         138.5709  139.6426  166.5526 O.2     1  UNL1       -0.3532
     15 N         138.4945  139.1405  165.1412 N.ar    1  UNL1       -0.0723
     16 C         140.4850  140.7243  168.0730 C.ar    1  UNL1        0.0648
     17 C         140.9095  139.8232  169.1945 C.ar    1  UNL1        0.0077
     18 C         141.4279  140.4108  170.4735 C.ar    1  UNL1        0.0299
     19 C         141.5219  141.8996  170.6310 C.ar    1  UNL1        0.1424
     20 F         142.0403  142.4872  171.9100 F       1  UNL1       -0.2041
     21 C         141.0974  142.8006  169.5095 C.ar    1  UNL1        0.0593
     22 C         140.5790  142.2130  168.2305 C.ar    1  UNL1        0.1453
     23 F         140.1545  143.1141  167.1089 F       1  UNL1       -0.2040
     24 C         141.0331  141.4994  160.2558 C.2     1  UNL1        0.2252
     25 O         139.7389  141.6112  161.0057 O.2     1  UNL1       -0.2750
     26 N         141.7444  142.7383  159.7984 N.am    1  UNL1       -0.3010
     27 H         142.5938  142.6649  159.3062 H       1  UNL1        0.1497
     28 C         141.1614  144.0890  160.0909 C.3     1  UNL1        0.1089
     29 C         140.3266  145.3264  159.9417 C.3     1  UNL1        0.0274
     30 C         140.2340  144.2315  158.9205 C.3     1  UNL1        0.0274
     31 C         141.8862  144.4157  161.3628 C.ar    1  UNL1        0.1549
     32 N         143.3328  144.0504  161.5168 N.ar    1  UNL1       -0.2276
     33 C         144.0578  144.3771  162.7888 C.ar    1  UNL1        0.1019
     34 C         143.3360  145.0691  163.9067 C.ar    1  UNL1        0.0413
     35 C         141.8893  145.4345  163.7528 C.ar    1  UNL1        0.1019
     36 N         141.1644  145.1079  162.4809 N.ar    1  UNL1       -0.2276
     37 C         142.9453  138.0630  156.8595 C.3     1  UNL1        0.0721
     38 C         142.9368  136.6250  156.4328 C.3     1  UNL1        0.0160
     39 C         143.6760  135.3554  156.1299 C.3     1  UNL1        0.0014
     40 C         142.1828  135.4038  155.9967 C.3     1  UNL1        0.0014
@<TRIPOS>BOND
     1     7     8    2
     2     8     9   am
     3     1     9    1
     4     1     2    1
     5     2     3    1
     6     3     4    1
     7     4    37    1
     8    37    38    1
     9    38    39    1
    10    39    40    1
    11     4     5    1
    12     5     6    1
    13     6    24    1
    14    24    25    2
    15    24    26   am
    16    26    28    1
    17    28    31    1
    18    31    32   ar
    19    32    33   ar
    20    33    34   ar
    21    34    35   ar
    22    35    36   ar
    23    28    29    1
    24    29    30    1
    25     8    11    1
    26    11    12   ar
    27    12    13   ar
    28    13    16    1
    29    16    17   ar
    30    17    18   ar
    31    18    19   ar
    32    19    20    1
    33    19    21   ar
    34    21    22   ar
    35    22    23    1
    36    13    14   ar
    37    14    15   ar
    38     6     1    1
    39    30    28    1
    40    15    11   ar
    41    40    38    1
    42    36    31   ar
    43    22    16   ar
    44     9    10    1
    45    26    27    1
