@<TRIPOS>MOLECULE
*****
 30 32 0 0 0
SMALL
GASTEIGER

@<TRIPOS>ATOM
      1 O         142.3387  138.4059  165.8960 O.3     1  UNL1       -0.4776
      2 C         142.6771  141.1653  168.7281 C.ar    1  UNL1       -0.0191
      3 C         142.3819  139.8616  168.0474 C.ar    1  UNL1        0.0342
      4 C         142.6339  139.7096  166.5766 C.ar    1  UNL1        0.1555
      5 C         143.1811  140.8612  165.7864 C.ar    1  UNL1        0.1151
      6 N         143.4331  140.7091  164.3156 N.ar    1  UNL1       -0.2408
      7 C         143.9803  141.8607  163.5255 C.ar    1  UNL1        0.0989
      8 C         144.2755  143.1644  164.2062 C.ar    1  UNL1        0.0207
      9 C         144.0235  143.3164  165.6770 C.ar    1  UNL1        0.0032
     10 C         143.4763  142.1649  166.4671 C.ar    1  UNL1        0.0204
     11 C         143.2243  142.3169  167.9380 C.ar    1  UNL1       -0.0026
     12 C         142.4250  141.3173  170.1990 C.3     1  UNL1        0.0265
     13 C         141.0245  141.4968  170.7053 C.3     1  UNL1        0.0047
     14 C         140.4242  143.8780  169.8571 C.3     1  UNL1        0.0000
     15 C         140.0832  142.4238  169.9950 C.3     1  UNL1        0.0003
     16 C         141.2401  138.3232  164.8780 C.3     1  UNL1        0.1688
     17 C         141.5306  137.8019  163.5018 C.3     1  UNL1        0.0609
     18 C         140.4320  137.7192  162.4838 C.3     1  UNL1        0.0758
     19 N         139.0430  138.1578  162.8419 N.3     1  UNL1       -0.2724
     20 C         138.7526  138.6792  164.2181 C.3     1  UNL1        0.0758
     21 C         139.8511  138.7619  165.2361 C.3     1  UNL1        0.0609
     22 C         137.9445  138.0751  161.8240 C.3     1  UNL1        0.0739
     23 C         137.3870  139.3293  161.2185 C.3     1  UNL1        0.0426
     24 C         138.2938  140.4872  160.9240 C.3     1  UNL1        0.1522
     25 S         138.5601  141.5187  161.9799 S.O2    1  UNL1       -0.0116
     26 O         137.1089  141.5055  162.3588 O.2     1  UNL1       -0.1730
     27 O         140.0114  141.5319  161.6010 O.2     1  UNL1       -0.1730
     28 C         138.8264  142.5503  163.0359 C.3     1  UNL1        0.1292
     29 C         137.8697  143.6891  163.2300 C.3     1  UNL1        0.0253
     30 C         140.0494  142.4429  163.8977 C.3     1  UNL1        0.0253
@<TRIPOS>BOND
     1    14    15    1
     2    15    13    1
     3    13    12    1
     4    12     2    1
     5     2     3   ar
     6     3     4   ar
     7     4     1    1
     8     1    16    1
     9    16    17    1
    10    17    18    1
    11    18    19    1
    12    19    22    1
    13    22    23    1
    14    23    24    1
    15    24    25    1
    16    25    26    2
    17    25    27    2
    18    25    28    1
    19    28    29    1
    20    28    30    1
    21    19    20    1
    22    20    21    1
    23     4     5   ar
    24     5     6   ar
    25     6     7   ar
    26     7     8   ar
    27     8     9   ar
    28     9    10   ar
    29    10    11   ar
    30    11     2   ar
    31    21    16    1
    32    10     5   ar
@<TRIPOS>MOLECULE
*****
 30 32 0 0 0
SMALL
GASTEIGER

@<TRIPOS>ATOM
      1 O         139.2307  141.4270  166.1534 O.3     1  UNL1       -0.4776
      2 C         142.5356  139.2310  166.2250 C.ar    1  UNL1       -0.0191
      3 C         141.3210  139.9479  165.7144 C.ar    1  UNL1        0.0342
      4 C         140.4454  140.7102  166.6641 C.ar    1  UNL1        0.1555
      5 C         140.7844  140.7557  168.1247 C.ar    1  UNL1        0.1151
      6 N         139.9088  141.5181  169.0744 N.ar    1  UNL1       -0.2408
      7 C         140.2478  141.5636  170.5349 C.ar    1  UNL1        0.0989
      8 C         141.4624  140.8468  171.0455 C.ar    1  UNL1        0.0207
      9 C         142.3381  140.0845  170.0958 C.ar    1  UNL1        0.0032
     10 C         141.9990  140.0389  168.6353 C.ar    1  UNL1        0.0204
     11 C         142.8747  139.2766  167.6855 C.ar    1  UNL1       -0.0026
     12 C         143.4113  138.4687  165.2752 C.3     1  UNL1        0.0265
     13 C         143.8840  139.1158  164.0072 C.3     1  UNL1        0.0047
     14 C         144.7835  141.5353  164.3012 C.3     1  UNL1        0.0000
     15 C         145.0330  140.0794  164.0401 C.3     1  UNL1        0.0003
     16 C         139.3773  142.5222  165.1391 C.3     1  UNL1        0.1688
     17 C         140.5118  143.4976  165.2471 C.3     1  UNL1        0.0609
     18 C         140.6584  144.5928  164.2327 C.3     1  UNL1        0.0758
     19 N         139.6706  144.7127  163.1103 N.3     1  UNL1       -0.2724
     20 C         138.5362  143.7373  163.0022 C.3     1  UNL1        0.0758
     21 C         138.3895  142.6421  164.0166 C.3     1  UNL1        0.0609
     22 C         139.8172  145.8079  162.0959 C.3     1  UNL1        0.0739
     23 C         140.0964  145.4692  160.6615 C.3     1  UNL1        0.0426
     24 C         141.4514  144.9668  160.2596 C.3     1  UNL1        0.1522
     25 S         141.9253  143.6255  160.7352 S.O2    1  UNL1       -0.0116
     26 O         140.7671  142.9707  160.0427 O.2     1  UNL1       -0.1730
     27 O         143.0836  144.2803  161.4277 O.2     1  UNL1       -0.1730
     28 C         142.3992  142.2841  161.2108 C.3     1  UNL1        0.1292
     29 C         143.6655  141.6977  160.6607 C.3     1  UNL1        0.0253
     30 C         141.6068  141.5291  162.2365 C.3     1  UNL1        0.0253
@<TRIPOS>BOND
     1    14    15    1
     2    15    13    1
     3    13    12    1
     4    12     2    1
     5     2     3   ar
     6     3     4   ar
     7     4     1    1
     8     1    16    1
     9    16    17    1
    10    17    18    1
    11    18    19    1
    12    19    22    1
    13    22    23    1
    14    23    24    1
    15    24    25    1
    16    25    26    2
    17    25    27    2
    18    25    28    1
    19    28    29    1
    20    28    30    1
    21    19    20    1
    22    20    21    1
    23     4     5   ar
    24     5     6   ar
    25     6     7   ar
    26     7     8   ar
    27     8     9   ar
    28     9    10   ar
    29    10    11   ar
    30    11     2   ar
    31    21    16    1
    32    10     5   ar
@<TRIPOS>MOLECULE
*****
 30 32 0 0 0
SMALL
GASTEIGER

@<TRIPOS>ATOM
      1 O         142.3187  138.6484  165.8637 O.3     1  UNL1       -0.4776
      2 C         143.7226  142.3601  165.8146 C.ar    1  UNL1       -0.0191
      3 C         143.3134  140.9933  165.3517 C.ar    1  UNL1        0.0342
      4 C         142.7280  140.0152  166.3267 C.ar    1  UNL1        0.1555
      5 C         142.5519  140.4040  167.7647 C.ar    1  UNL1        0.1151
      6 N         141.9665  139.4259  168.7397 N.ar    1  UNL1       -0.2408
      7 C         141.7904  139.8146  170.1777 C.ar    1  UNL1        0.0989
      8 C         142.1996  141.1815  170.6407 C.ar    1  UNL1        0.0207
      9 C         142.7850  142.1595  169.6657 C.ar    1  UNL1        0.0032
     10 C         142.9611  141.7708  168.2277 C.ar    1  UNL1        0.0204
     11 C         143.5465  142.7488  167.2526 C.ar    1  UNL1       -0.0026
     12 C         144.3080  143.3382  164.8395 C.3     1  UNL1        0.0265
     13 C         143.8874  143.3051  163.4001 C.3     1  UNL1        0.0047
     14 C         142.2121  145.2414  163.8405 C.3     1  UNL1        0.0000
     15 C         142.8815  144.2938  162.8897 C.3     1  UNL1        0.0003
     16 C         141.2495  138.4981  164.8226 C.3     1  UNL1        0.1688
     17 C         139.8062  138.6493  165.2024 C.3     1  UNL1        0.0609
     18 C         138.7369  138.4990  164.1613 C.3     1  UNL1        0.0758
     19 N         139.1108  138.1976  162.7403 N.3     1  UNL1       -0.2724
     20 C         140.5540  138.0465  162.3604 C.3     1  UNL1        0.0758
     21 C         141.6234  138.1967  163.4015 C.3     1  UNL1        0.0609
     22 C         138.0415  138.0473  161.6991 C.3     1  UNL1        0.0739
     23 C         137.3305  139.2592  161.1739 C.3     1  UNL1        0.0426
     24 C         138.1131  140.4786  160.7859 C.3     1  UNL1        0.1522
     25 S         138.5208  141.4726  161.8326 S.O2    1  UNL1       -0.0116
     26 O         139.9283  141.4403  161.3151 O.2     1  UNL1       -0.1730
     27 O         137.1133  141.5049  162.3501 O.2     1  UNL1       -0.1730
     28 C         138.9285  142.4666  162.8794 C.3     1  UNL1        0.1292
     29 C         138.2638  143.8100  162.9373 C.3     1  UNL1        0.0253
     30 C         140.0009  142.1172  163.8682 C.3     1  UNL1        0.0253
@<TRIPOS>BOND
     1    14    15    1
     2    15    13    1
     3    13    12    1
     4    12     2    1
     5     2     3   ar
     6     3     4   ar
     7     4     1    1
     8     1    16    1
     9    16    17    1
    10    17    18    1
    11    18    19    1
    12    19    22    1
    13    22    23    1
    14    23    24    1
    15    24    25    1
    16    25    26    2
    17    25    27    2
    18    25    28    1
    19    28    29    1
    20    28    30    1
    21    19    20    1
    22    20    21    1
    23     4     5   ar
    24     5     6   ar
    25     6     7   ar
    26     7     8   ar
    27     8     9   ar
    28     9    10   ar
    29    10    11   ar
    30    11     2   ar
    31    21    16    1
    32    10     5   ar
@<TRIPOS>MOLECULE
*****
 30 32 0 0 0
SMALL
GASTEIGER

@<TRIPOS>ATOM
      1 O         139.6112  139.1503  166.4138 O.3     1  UNL1       -0.4776
      2 C         142.8312  141.4608  166.2068 C.ar    1  UNL1       -0.0191
      3 C         141.6915  140.5776  165.7933 C.ar    1  UNL1        0.0342
      4 C         140.7509  140.0335  166.8273 C.ar    1  UNL1        0.1555
      5 C         140.9500  140.3726  168.2749 C.ar    1  UNL1        0.1151
      6 N         140.0095  139.8285  169.3089 N.ar    1  UNL1       -0.2408
      7 C         140.2086  140.1675  170.7564 C.ar    1  UNL1        0.0989
      8 C         141.3484  141.0507  171.1699 C.ar    1  UNL1        0.0207
      9 C         142.2889  141.5948  170.1359 C.ar    1  UNL1        0.0032
     10 C         142.0898  141.2557  168.6884 C.ar    1  UNL1        0.0204
     11 C         143.0304  141.7999  167.6543 C.ar    1  UNL1       -0.0026
     12 C         143.7719  142.0049  165.1727 C.3     1  UNL1        0.0265
     13 C         144.2757  143.4133  165.2842 C.3     1  UNL1        0.0047
     14 C         144.0680  144.4176  162.8971 C.3     1  UNL1        0.0000
     15 C         143.7501  144.4731  164.3620 C.3     1  UNL1        0.0003
     16 C         139.0565  139.2434  165.0232 C.3     1  UNL1        0.1688
     17 C         139.3128  138.1414  164.0382 C.3     1  UNL1        0.0609
     18 C         138.7581  138.2344  162.6477 C.3     1  UNL1        0.0758
     19 N         137.9472  139.4294  162.2420 N.3     1  UNL1       -0.2724
     20 C         137.6910  140.5313  163.2269 C.3     1  UNL1        0.0758
     21 C         138.2456  140.4383  164.6176 C.3     1  UNL1        0.0609
     22 C         137.3926  139.5224  160.8515 C.3     1  UNL1        0.0739
     23 C         138.2547  140.0267  159.7323 C.3     1  UNL1        0.0426
     24 C         138.4699  141.5007  159.5570 C.3     1  UNL1        0.1522
     25 S         139.4375  142.2280  160.4427 S.O2    1  UNL1       -0.0116
     26 O         140.4642  141.1627  160.1957 O.2     1  UNL1       -0.1730
     27 O         138.4108  143.2933  160.6897 O.2     1  UNL1       -0.1730
     28 C         140.4053  142.9553  161.3285 C.3     1  UNL1        0.1292
     29 C         140.9759  142.2722  162.5360 C.3     1  UNL1        0.0253
     30 C         140.8024  144.3655  161.0069 C.3     1  UNL1        0.0253
@<TRIPOS>BOND
     1    14    15    1
     2    15    13    1
     3    13    12    1
     4    12     2    1
     5     2     3   ar
     6     3     4   ar
     7     4     1    1
     8     1    16    1
     9    16    17    1
    10    17    18    1
    11    18    19    1
    12    19    22    1
    13    22    23    1
    14    23    24    1
    15    24    25    1
    16    25    26    2
    17    25    27    2
    18    25    28    1
    19    28    29    1
    20    28    30    1
    21    19    20    1
    22    20    21    1
    23     4     5   ar
    24     5     6   ar
    25     6     7   ar
    26     7     8   ar
    27     8     9   ar
    28     9    10   ar
    29    10    11   ar
    30    11     2   ar
    31    21    16    1
    32    10     5   ar
@<TRIPOS>MOLECULE
*****
 30 32 0 0 0
SMALL
GASTEIGER

@<TRIPOS>ATOM
      1 O         140.7066  143.5996  166.1463 O.3     1  UNL1       -0.4776
      2 C         139.0276  140.0087  165.9559 C.ar    1  UNL1       -0.0191
      3 C         139.5459  141.3546  165.5439 C.ar    1  UNL1        0.0342
      4 C         140.1884  142.2536  166.5583 C.ar    1  UNL1        0.1555
      5 C         140.3126  141.8066  167.9848 C.ar    1  UNL1        0.1151
      6 N         140.9550  142.7055  168.9992 N.ar    1  UNL1       -0.2408
      7 C         141.0792  142.2585  170.4256 C.ar    1  UNL1        0.0989
      8 C         140.5609  140.9126  170.8376 C.ar    1  UNL1        0.0207
      9 C         139.9184  140.0136  169.8232 C.ar    1  UNL1        0.0032
     10 C         139.7943  140.4606  168.3968 C.ar    1  UNL1        0.0204
     11 C         139.1518  139.5616  167.3823 C.ar    1  UNL1       -0.0026
     12 C         138.3851  139.1097  164.9414 C.3     1  UNL1        0.0265
     13 C         138.9027  137.7164  164.7393 C.3     1  UNL1        0.0047
     14 C         141.4987  137.6130  164.7398 C.3     1  UNL1        0.0000
     15 C         140.1941  137.4946  164.0091 C.3     1  UNL1        0.0003
     16 C         140.6349  144.0231  164.7091 C.3     1  UNL1        0.1688
     17 C         141.7699  143.7137  163.7785 C.3     1  UNL1        0.0609
     18 C         141.6982  144.1372  162.3413 C.3     1  UNL1        0.0758
     19 N         140.4915  144.8702  161.8348 N.3     1  UNL1       -0.2724
     20 C         139.3565  145.1796  162.7653 C.3     1  UNL1        0.0758
     21 C         139.4282  144.7561  164.2026 C.3     1  UNL1        0.0609
     22 C         140.4198  145.2937  160.3976 C.3     1  UNL1        0.0739
     23 C         140.4254  144.2606  159.3101 C.3     1  UNL1        0.0426
     24 C         139.3183  143.2520  159.2280 C.3     1  UNL1        0.1522
     25 S         139.1803  142.2017  160.2900 S.O2    1  UNL1       -0.0116
     26 O         137.8874  142.8196  160.7331 O.2     1  UNL1       -0.1730
     27 O         140.4733  141.5838  159.8469 O.2     1  UNL1       -0.1730
     28 C         139.0423  141.1514  161.3521 C.3     1  UNL1        0.1292
     29 C         137.6813  140.6655  161.7539 C.3     1  UNL1        0.0253
     30 C         140.2653  140.5872  162.0123 C.3     1  UNL1        0.0253
@<TRIPOS>BOND
     1    14    15    1
     2    15    13    1
     3    13    12    1
     4    12     2    1
     5     2     3   ar
     6     3     4   ar
     7     4     1    1
     8     1    16    1
     9    16    17    1
    10    17    18    1
    11    18    19    1
    12    19    22    1
    13    22    23    1
    14    23    24    1
    15    24    25    1
    16    25    26    2
    17    25    27    2
    18    25    28    1
    19    28    29    1
    20    28    30    1
    21    19    20    1
    22    20    21    1
    23     4     5   ar
    24     5     6   ar
    25     6     7   ar
    26     7     8   ar
    27     8     9   ar
    28     9    10   ar
    29    10    11   ar
    30    11     2   ar
    31    21    16    1
    32    10     5   ar
@<TRIPOS>MOLECULE
*****
 30 32 0 0 0
SMALL
GASTEIGER

@<TRIPOS>ATOM
      1 O         140.1920  142.5896  166.1687 O.3     1  UNL1       -0.4776
      2 C         142.6618  139.6080  167.0405 C.ar    1  UNL1       -0.0191
      3 C         141.8461  140.5878  166.2502 C.ar    1  UNL1        0.0342
      4 C         141.0078  141.6098  166.9591 C.ar    1  UNL1        0.1555
      5 C         140.9851  141.6521  168.4583 C.ar    1  UNL1        0.1151
      6 N         140.1467  142.6742  169.1672 N.ar    1  UNL1       -0.2408
      7 C         140.1241  142.7164  170.6664 C.ar    1  UNL1        0.0989
      8 C         140.9398  141.7367  171.4567 C.ar    1  UNL1        0.0207
      9 C         141.7782  140.7146  170.7479 C.ar    1  UNL1        0.0032
     10 C         141.8008  140.6724  169.2487 C.ar    1  UNL1        0.0204
     11 C         142.6392  139.6503  168.5397 C.ar    1  UNL1       -0.0026
     12 C         143.5002  138.5859  166.3316 C.3     1  UNL1        0.0265
     13 C         143.8632  138.7832  164.8896 C.3     1  UNL1        0.0047
     14 C         145.1006  140.6606  163.5880 C.3     1  UNL1        0.0000
     15 C         145.1349  139.4909  164.5264 C.3     1  UNL1        0.0003
     16 C         139.6323  142.1953  164.8342 C.3     1  UNL1        0.1688
     17 C         138.3040  141.5030  164.7528 C.3     1  UNL1        0.0609
     18 C         137.7443  141.1086  163.4183 C.3     1  UNL1        0.0758
     19 N         138.5127  141.4065  162.1650 N.3     1  UNL1       -0.2724
     20 C         139.8409  142.0988  162.2462 C.3     1  UNL1        0.0758
     21 C         140.4007  142.4932  163.5809 C.3     1  UNL1        0.0609
     22 C         137.9530  141.0122  160.8304 C.3     1  UNL1        0.0739
     23 C         138.4620  139.7833  160.1370 C.3     1  UNL1        0.0426
     24 C         138.5397  138.4817  160.8785 C.3     1  UNL1        0.1522
     25 S         139.8049  138.0961  161.5860 S.O2    1  UNL1       -0.0116
     26 O         140.6084  138.5996  160.4238 O.2     1  UNL1       -0.1730
     27 O         139.0014  137.5926  162.7483 O.2     1  UNL1       -0.1730
     28 C         141.0701  137.7104  162.2936 C.3     1  UNL1        0.1292
     29 C         142.3973  137.9306  161.6302 C.3     1  UNL1        0.0253
     30 C         141.0081  137.1047  163.6644 C.3     1  UNL1        0.0253
@<TRIPOS>BOND
     1    14    15    1
     2    15    13    1
     3    13    12    1
     4    12     2    1
     5     2     3   ar
     6     3     4   ar
     7     4     1    1
     8     1    16    1
     9    16    17    1
    10    17    18    1
    11    18    19    1
    12    19    22    1
    13    22    23    1
    14    23    24    1
    15    24    25    1
    16    25    26    2
    17    25    27    2
    18    25    28    1
    19    28    29    1
    20    28    30    1
    21    19    20    1
    22    20    21    1
    23     4     5   ar
    24     5     6   ar
    25     6     7   ar
    26     7     8   ar
    27     8     9   ar
    28     9    10   ar
    29    10    11   ar
    30    11     2   ar
    31    21    16    1
    32    10     5   ar
@<TRIPOS>MOLECULE
*****
 30 32 0 0 0
SMALL
GASTEIGER

@<TRIPOS>ATOM
      1 O         143.3872  139.5328  166.2700 O.3     1  UNL1       -0.4776
      2 C         139.4225  139.4897  166.4418 C.ar    1  UNL1       -0.0191
      3 C         140.8190  139.3922  165.9030 C.ar    1  UNL1        0.0342
      4 C         141.9907  139.6302  166.8088 C.ar    1  UNL1        0.1555
      5 C         141.7659  139.9657  168.2535 C.ar    1  UNL1        0.1151
      6 N         142.9376  140.2037  169.1593 N.ar    1  UNL1       -0.2408
      7 C         142.7127  140.5392  170.6038 C.ar    1  UNL1        0.0989
      8 C         141.3162  140.6367  171.1426 C.ar    1  UNL1        0.0207
      9 C         140.1446  140.3987  170.2368 C.ar    1  UNL1        0.0032
     10 C         140.3694  140.0632  168.7922 C.ar    1  UNL1        0.0204
     11 C         139.1977  139.8252  167.8863 C.ar    1  UNL1       -0.0026
     12 C         138.2508  139.2517  165.5359 C.3     1  UNL1        0.0265
     13 C         138.4421  139.2461  164.0481 C.3     1  UNL1        0.0047
     14 C         139.1353  137.9897  161.8824 C.3     1  UNL1        0.0000
     15 C         138.7858  137.9688  163.3409 C.3     1  UNL1        0.0003
     16 C         143.7385  140.1977  164.9722 C.3     1  UNL1        0.1688
     17 C         143.8816  139.3781  163.7241 C.3     1  UNL1        0.0609
     18 C         144.2329  140.0431  162.4263 C.3     1  UNL1        0.0758
     19 N         144.4411  141.5277  162.3765 N.3     1  UNL1       -0.2724
     20 C         144.2981  142.3473  163.6246 C.3     1  UNL1        0.0758
     21 C         143.9468  141.6824  164.9224 C.3     1  UNL1        0.0609
     22 C         144.7925  142.1927  161.0787 C.3     1  UNL1        0.0739
     23 C         143.7219  142.8495  160.2586 C.3     1  UNL1        0.0426
     24 C         142.2841  142.7323  160.6698 C.3     1  UNL1        0.1522
     25 S         141.6324  143.8404  161.4425 S.O2    1  UNL1       -0.0116
     26 O         140.8862  142.8299  162.2623 O.2     1  UNL1       -0.1730
     27 O         142.3786  144.8509  160.6228 O.2     1  UNL1       -0.1730
     28 C         140.9806  144.9486  162.2154 C.3     1  UNL1        0.1292
     29 C         139.9389  145.8072  161.5614 C.3     1  UNL1        0.0253
     30 C         141.3705  145.1981  163.6421 C.3     1  UNL1        0.0253
@<TRIPOS>BOND
     1    14    15    1
     2    15    13    1
     3    13    12    1
     4    12     2    1
     5     2     3   ar
     6     3     4   ar
     7     4     1    1
     8     1    16    1
     9    16    17    1
    10    17    18    1
    11    18    19    1
    12    19    22    1
    13    22    23    1
    14    23    24    1
    15    24    25    1
    16    25    26    2
    17    25    27    2
    18    25    28    1
    19    28    29    1
    20    28    30    1
    21    19    20    1
    22    20    21    1
    23     4     5   ar
    24     5     6   ar
    25     6     7   ar
    26     7     8   ar
    27     8     9   ar
    28     9    10   ar
    29    10    11   ar
    30    11     2   ar
    31    21    16    1
    32    10     5   ar
@<TRIPOS>MOLECULE
*****
 30 32 0 0 0
SMALL
GASTEIGER

@<TRIPOS>ATOM
      1 O         140.1653  139.0310  166.2164 O.3     1  UNL1       -0.4776
      2 C         140.0959  142.9990  166.2015 C.ar    1  UNL1       -0.0191
      3 C         140.0688  141.5791  165.7186 C.ar    1  UNL1        0.0342
      4 C         140.1924  140.4509  166.6993 C.ar    1  UNL1        0.1555
      5 C         140.3430  140.7425  168.1630 C.ar    1  UNL1        0.1151
      6 N         140.4665  139.6143  169.1437 N.ar    1  UNL1       -0.2408
      7 C         140.6171  139.9060  170.6073 C.ar    1  UNL1        0.0989
      8 C         140.6442  141.3259  171.0902 C.ar    1  UNL1        0.0207
      9 C         140.5207  142.4541  170.1095 C.ar    1  UNL1        0.0032
     10 C         140.3701  142.1624  168.6459 C.ar    1  UNL1        0.0204
     11 C         140.2465  143.2906  167.6651 C.ar    1  UNL1       -0.0026
     12 C         139.9724  144.1272  165.2207 C.3     1  UNL1        0.0265
     13 C         138.6363  144.7620  164.9722 C.3     1  UNL1        0.0047
     14 C         137.8261  143.5238  162.8368 C.3     1  UNL1        0.0000
     15 C         137.5719  144.0052  164.2345 C.3     1  UNL1        0.0003
     16 C         140.7849  138.6754  164.8975 C.3     1  UNL1        0.1688
     17 C         139.9118  138.3448  163.7234 C.3     1  UNL1        0.0609
     18 C         140.5314  137.9892  162.4045 C.3     1  UNL1        0.0758
     19 N         142.0242  137.9642  162.2596 N.3     1  UNL1       -0.2724
     20 C         142.8973  138.2948  163.4336 C.3     1  UNL1        0.0758
     21 C         142.2777  138.6504  164.7526 C.3     1  UNL1        0.0609
     22 C         142.6438  137.6086  160.9407 C.3     1  UNL1        0.0739
     23 C         142.8424  138.6664  159.8958 C.3     1  UNL1        0.0426
     24 C         143.8925  139.7205  160.0857 C.3     1  UNL1        0.1522
     25 S         143.6163  140.9046  160.9639 S.O2    1  UNL1       -0.0116
     26 O         142.3571  141.1798  160.1968 O.2     1  UNL1       -0.1730
     27 O         144.8756  140.6294  161.7310 O.2     1  UNL1       -0.1730
     28 C         143.3401  142.0889  161.8422 C.3     1  UNL1        0.1292
     29 C         144.2933  143.2469  161.8615 C.3     1  UNL1        0.0253
     30 C         142.1107  142.1151  162.7012 C.3     1  UNL1        0.0253
@<TRIPOS>BOND
     1    14    15    1
     2    15    13    1
     3    13    12    1
     4    12     2    1
     5     2     3   ar
     6     3     4   ar
     7     4     1    1
     8     1    16    1
     9    16    17    1
    10    17    18    1
    11    18    19    1
    12    19    22    1
    13    22    23    1
    14    23    24    1
    15    24    25    1
    16    25    26    2
    17    25    27    2
    18    25    28    1
    19    28    29    1
    20    28    30    1
    21    19    20    1
    22    20    21    1
    23     4     5   ar
    24     5     6   ar
    25     6     7   ar
    26     7     8   ar
    27     8     9   ar
    28     9    10   ar
    29    10    11   ar
    30    11     2   ar
    31    21    16    1
    32    10     5   ar
@<TRIPOS>MOLECULE
*****
 30 32 0 0 0
SMALL
GASTEIGER

@<TRIPOS>ATOM
      1 O         141.1502  139.1146  160.8952 O.3     1  UNL1       -0.4776
      2 C         140.2045  137.7873  164.5137 C.ar    1  UNL1       -0.0191
      3 C         140.0956  138.1377  163.0593 C.ar    1  UNL1        0.0342
      4 C         141.2591  138.7643  162.3496 C.ar    1  UNL1        0.1555
      5 C         142.5315  139.0405  163.0944 C.ar    1  UNL1        0.1151
      6 N         143.6950  139.6671  162.3848 N.ar    1  UNL1       -0.2408
      7 C         144.9674  139.9434  163.1296 C.ar    1  UNL1        0.0989
      8 C         145.0762  139.5930  164.5840 C.ar    1  UNL1        0.0207
      9 C         143.9127  138.9664  165.2936 C.ar    1  UNL1        0.0032
     10 C         142.6404  138.6902  164.5489 C.ar    1  UNL1        0.0204
     11 C         141.4768  138.0635  165.2585 C.ar    1  UNL1       -0.0026
     12 C         139.0409  137.1607  165.2233 C.3     1  UNL1        0.0265
     13 C         138.0895  138.0173  166.0051 C.3     1  UNL1        0.0047
     14 C         138.2085  140.4780  165.1802 C.3     1  UNL1        0.0000
     15 C         138.4154  139.4588  166.2612 C.3     1  UNL1        0.0003
     16 C         140.8610  140.5278  160.4837 C.3     1  UNL1        0.1688
     17 C         139.4528  141.0438  160.5118 C.3     1  UNL1        0.0609
     18 C         139.1635  142.4569  160.1003 C.3     1  UNL1        0.0758
     19 N         140.2824  143.3541  159.6609 N.3     1  UNL1       -0.2724
     20 C         141.6906  142.8381  159.6328 C.3     1  UNL1        0.0758
     21 C         141.9799  141.4249  160.0443 C.3     1  UNL1        0.0609
     22 C         139.9932  144.7673  159.2494 C.3     1  UNL1        0.0739
     23 C         140.4285  145.9067  160.1226 C.3     1  UNL1        0.0426
     24 C         139.6596  146.2330  161.3685 C.3     1  UNL1        0.1522
     25 S         139.6962  145.2961  162.5393 S.O2    1  UNL1       -0.0116
     26 O         138.2190  145.0723  162.4064 O.2     1  UNL1       -0.1730
     27 O         141.1734  145.5200  162.6722 O.2     1  UNL1       -0.1730
     28 C         139.7328  144.3592  163.7102 C.3     1  UNL1        0.1292
     29 C         140.5063  143.0771  163.6210 C.3     1  UNL1        0.0253
     30 C         138.9959  144.7044  164.9703 C.3     1  UNL1        0.0253
@<TRIPOS>BOND
     1    14    15    1
     2    15    13    1
     3    13    12    1
     4    12     2    1
     5     2     3   ar
     6     3     4   ar
     7     4     1    1
     8     1    16    1
     9    16    17    1
    10    17    18    1
    11    18    19    1
    12    19    22    1
    13    22    23    1
    14    23    24    1
    15    24    25    1
    16    25    26    2
    17    25    27    2
    18    25    28    1
    19    28    29    1
    20    28    30    1
    21    19    20    1
    22    20    21    1
    23     4     5   ar
    24     5     6   ar
    25     6     7   ar
    26     7     8   ar
    27     8     9   ar
    28     9    10   ar
    29    10    11   ar
    30    11     2   ar
    31    21    16    1
    32    10     5   ar
