@<TRIPOS>MOLECULE
*****
 29 29 0 0 0
SMALL
GASTEIGER

@<TRIPOS>ATOM
      1 C         143.2606  141.5244  166.1632 C.3     1  UNL1        0.1035
      2 C         143.1854  140.0621  165.8377 C.3     1  UNL1        0.1002
      3 C         144.0079  139.8182  164.6073 C.3     1  UNL1        0.3324
      4 F         144.7405  139.2764  163.4157 F       1  UNL1       -0.1945
      5 F         143.5775  138.3933  164.7931 F       1  UNL1       -0.1945
      6 C         144.5915  141.1297  164.1723 C.2     1  UNL1        0.2871
      7 O         145.4809  141.3484  162.9843 O.2     1  UNL1       -0.2690
      8 N         144.1297  142.1842  165.1339 N.am    1  UNL1       -0.2728
      9 C         143.2044  142.1621  168.6812 C.2     1  UNL1       -0.0004
     10 C         142.5854  142.2071  167.3156 C.2     1  UNL1       -0.0087
     11 C         142.5292  142.8447  169.8336 C.3     1  UNL1        0.1331
     12 O         143.3493  143.5522  170.8713 O.3     1  UNL1       -0.3800
     13 H         142.7620  143.9362  171.5410 H       1  UNL1        0.2108
     14 C         141.0337  142.8198  169.9483 C.3     1  UNL1        0.0441
     15 C         140.2525  144.0964  169.8479 C.3     1  UNL1        0.0039
     16 C         140.3196  141.5184  170.1635 C.3     1  UNL1        0.0788
     17 C         139.2616  139.9817  167.8142 C.1     1  UNL1       -0.0911
     18 C         139.7906  140.7500  168.9888 C.1     1  UNL1       -0.0910
     19 C         139.6362  138.8891  165.4870 C.3     1  UNL1        0.0150
     20 C         138.7326  139.2134  166.6396 C.3     1  UNL1        0.0761
     21 C         144.4761  143.6426  165.0764 C.3     1  UNL1        0.0938
     22 C         143.6376  144.5810  164.2601 C.3     1  UNL1        0.0215
     23 C         142.3631  144.0968  163.6346 C.3     1  UNL1        0.0018
     24 C         141.0696  144.2075  164.3859 C.3     1  UNL1        0.0004
     25 C         140.1825  143.0069  164.5328 C.3     1  UNL1        0.0059
     26 C         139.5238  142.4088  163.3252 C.3     1  UNL1        0.0417
     27 C         138.1454  142.8475  162.9281 C.2     1  UNL1        0.0503
     28 O         137.8987  144.2708  162.5239 O.co2   1  UNL1       -0.5492
     29 O         137.0138  141.8630  162.9353 O.co2   1  UNL1       -0.5492
@<TRIPOS>UNITY_ATOM_ATTR
28 1
charge -1
@<TRIPOS>BOND
     1    19    20    1
     2    20    17    1
     3    17    18    3
     4    18    16    1
     5    16    14    1
     6    14    15    1
     7    14    11    1
     8    11    12    1
     9    11     9    1
    10     9    10    2
    11     1    10    1
    12     1     2    1
    13     2     3    1
    14     3     4    1
    15     3     5    1
    16     3     6    1
    17     6     7    2
    18     6     8   am
    19     8    21    1
    20    21    22    1
    21    22    23    1
    22    23    24    1
    23    24    25    1
    24    25    26    1
    25    26    27    1
    26    27    28   ar
    27    27    29   ar
    28     8     1    1
    29    12    13    1
@<TRIPOS>MOLECULE
*****
 29 29 0 0 0
SMALL
GASTEIGER

@<TRIPOS>ATOM
      1 C         139.8816  139.2452  165.6689 C.3     1  UNL1        0.1035
      2 C         138.5563  138.6288  166.0060 C.3     1  UNL1        0.1002
      3 C         138.2144  139.0072  167.4166 C.3     1  UNL1        0.3324
      4 F         137.6133  139.2170  168.7748 F       1  UNL1       -0.1945
      5 F         136.9748  138.2008  167.1658 F       1  UNL1       -0.1945
      6 C         139.3283  139.8576  167.9514 C.2     1  UNL1        0.2871
      7 O         139.3994  140.4558  169.3251 O.2     1  UNL1       -0.2690
      8 N         140.3587  140.0047  166.8713 N.am    1  UNL1       -0.2728
      9 C         141.7845  138.2076  164.2363 C.2     1  UNL1       -0.0004
     10 C         140.6031  139.1236  164.3595 C.2     1  UNL1       -0.0087
     11 C         142.5060  138.0860  162.9269 C.3     1  UNL1        0.1331
     12 O         142.0105  137.1290  161.8836 O.3     1  UNL1       -0.3800
     13 H         142.5860  137.1739  161.1041 H       1  UNL1        0.2108
     14 C         143.7230  138.9216  162.6607 C.3     1  UNL1        0.0441
     15 C         144.0911  139.2831  161.2522 C.3     1  UNL1        0.0039
     16 C         144.5718  139.3956  163.8030 C.3     1  UNL1        0.0788
     17 C         144.5385  142.2883  164.5972 C.1     1  UNL1       -0.0911
     18 C         144.5551  140.8420  164.2001 C.1     1  UNL1       -0.0910
     19 C         143.7819  144.7343  164.1556 C.3     1  UNL1        0.0150
     20 C         144.5218  143.7347  164.9943 C.3     1  UNL1        0.0761
     21 C         141.6411  140.7758  166.9753 C.3     1  UNL1        0.0938
     22 C         141.6457  142.2581  166.7455 C.3     1  UNL1        0.0215
     23 C         140.9272  142.8358  165.5622 C.3     1  UNL1        0.0018
     24 C         139.5981  143.5063  165.7459 C.3     1  UNL1        0.0004
     25 C         139.0939  144.4682  164.7112 C.3     1  UNL1        0.0059
     26 C         137.7930  144.2046  164.0127 C.3     1  UNL1        0.0417
     27 C         137.7504  143.2847  162.8286 C.2     1  UNL1        0.0503
     28 O         137.0607  141.9569  162.9349 O.co2   1  UNL1       -0.5492
     29 O         138.3975  143.6925  161.5383 O.co2   1  UNL1       -0.5492
@<TRIPOS>UNITY_ATOM_ATTR
28 1
charge -1
@<TRIPOS>BOND
     1    19    20    1
     2    20    17    1
     3    17    18    3
     4    18    16    1
     5    16    14    1
     6    14    15    1
     7    14    11    1
     8    11    12    1
     9    11     9    1
    10     9    10    2
    11     1    10    1
    12     1     2    1
    13     2     3    1
    14     3     4    1
    15     3     5    1
    16     3     6    1
    17     6     7    2
    18     6     8   am
    19     8    21    1
    20    21    22    1
    21    22    23    1
    22    23    24    1
    23    24    25    1
    24    25    26    1
    25    26    27    1
    26    27    28   ar
    27    27    29   ar
    28     8     1    1
    29    12    13    1
@<TRIPOS>MOLECULE
*****
 29 29 0 0 0
SMALL
GASTEIGER

@<TRIPOS>ATOM
      1 C         141.8638  139.7900  165.0581 C.3     1  UNL1        0.1035
      2 C         141.9469  138.4299  164.4310 C.3     1  UNL1        0.1002
      3 C         140.6227  137.7509  164.6194 C.3     1  UNL1        0.3324
      4 F         139.4351  136.8353  164.6538 F       1  UNL1       -0.1945
      5 F         141.2759  136.6190  163.8830 F       1  UNL1       -0.1945
      6 C         139.7212  138.6913  165.3630 C.2     1  UNL1        0.2871
      7 O         138.3019  138.4193  165.7649 O.2     1  UNL1       -0.2690
      8 N         140.4883  139.9515  165.6341 N.am    1  UNL1       -0.2728
      9 C         143.6625  141.2128  163.8374 C.2     1  UNL1       -0.0004
     10 C         142.9633  140.8094  165.1016 C.2     1  UNL1       -0.0087
     11 C         144.7619  142.2323  163.8809 C.3     1  UNL1        0.1331
     12 O         146.1242  141.8891  163.3553 O.3     1  UNL1       -0.3800
     13 H         146.7123  142.6537  163.4576 H       1  UNL1        0.2108
     14 C         144.4990  143.5950  164.4501 C.3     1  UNL1        0.0441
     15 C         145.0428  143.9621  165.7990 C.3     1  UNL1        0.0039
     16 C         143.6924  144.5907  163.6704 C.3     1  UNL1        0.0788
     17 C         140.7167  144.7206  164.0291 C.1     1  UNL1       -0.0911
     18 C         142.2045  144.6556  163.8497 C.1     1  UNL1       -0.0910
     19 C         138.6446  144.9256  165.5829 C.3     1  UNL1        0.0150
     20 C         139.2289  144.7856  164.2085 C.3     1  UNL1        0.0761
     21 C         139.9707  141.1609  166.3548 C.3     1  UNL1        0.0938
     22 C         140.3117  141.3762  167.7995 C.3     1  UNL1        0.0215
     23 C         140.6879  140.2089  168.6633 C.3     1  UNL1        0.0018
     24 C         142.1328  139.8615  168.8669 C.3     1  UNL1        0.0004
     25 C         142.9242  140.5452  169.9423 C.3     1  UNL1        0.0059
     26 C         143.4222  141.9444  169.7324 C.3     1  UNL1        0.0417
     27 C         142.7986  143.0831  170.4837 C.2     1  UNL1        0.0503
     28 O         143.6677  144.1226  171.1272 O.co2   1  UNL1       -0.5492
     29 O         141.3058  143.1823  170.5916 O.co2   1  UNL1       -0.5492
@<TRIPOS>UNITY_ATOM_ATTR
28 1
charge -1
@<TRIPOS>BOND
     1    19    20    1
     2    20    17    1
     3    17    18    3
     4    18    16    1
     5    16    14    1
     6    14    15    1
     7    14    11    1
     8    11    12    1
     9    11     9    1
    10     9    10    2
    11     1    10    1
    12     1     2    1
    13     2     3    1
    14     3     4    1
    15     3     5    1
    16     3     6    1
    17     6     7    2
    18     6     8   am
    19     8    21    1
    20    21    22    1
    21    22    23    1
    22    23    24    1
    23    24    25    1
    24    25    26    1
    25    26    27    1
    26    27    28   ar
    27    27    29   ar
    28     8     1    1
    29    12    13    1
@<TRIPOS>MOLECULE
*****
 29 29 0 0 0
SMALL
GASTEIGER

@<TRIPOS>ATOM
      1 C         138.9882  139.9853  164.6616 C.3     1  UNL1        0.1035
      2 C         139.5601  138.6694  164.2243 C.3     1  UNL1        0.1002
      3 C         139.0179  138.3586  162.8606 C.3     1  UNL1        0.3324
      4 F         138.6493  137.7879  161.5232 F       1  UNL1       -0.1945
      5 F         139.8478  137.1154  162.9864 F       1  UNL1       -0.1945
      6 C         138.1110  139.4824  162.4552 C.2     1  UNL1        0.2871
      7 O         137.3551  139.5833  161.1635 O.2     1  UNL1       -0.2690
      8 N         138.0926  140.4878  163.5683 N.am    1  UNL1       -0.2728
      9 C         139.5181  139.8706  167.2025 C.2     1  UNL1       -0.0004
     10 C         139.2635  140.6772  165.9637 C.2     1  UNL1       -0.0087
     11 C         139.7934  140.5625  168.5046 C.3     1  UNL1        0.1331
     12 O         139.1088  140.1029  169.7576 O.3     1  UNL1       -0.3800
     13 H         139.3961  140.6527  170.5033 H       1  UNL1        0.2108
     14 C         140.7534  141.7141  168.5537 C.3     1  UNL1        0.0441
     15 C         140.2405  143.1104  168.7462 C.3     1  UNL1        0.0039
     16 C         142.2263  141.4693  168.4102 C.3     1  UNL1        0.0788
     17 C         143.7097  142.5849  166.0533 C.1     1  UNL1       -0.0911
     18 C         142.9680  142.0271  167.2317 C.1     1  UNL1       -0.0910
     19 C         145.2792  142.2366  164.0123 C.3     1  UNL1        0.0150
     20 C         144.4514  143.1427  164.8748 C.3     1  UNL1        0.0761
     21 C         137.3151  141.7704  163.5851 C.3     1  UNL1        0.0938
     22 C         137.9466  143.0368  163.0875 C.3     1  UNL1        0.0215
     23 C         138.0763  144.2194  164.0011 C.3     1  UNL1        0.0018
     24 C         139.1696  144.2579  165.0274 C.3     1  UNL1        0.0004
     25 C         140.5807  143.9378  164.6322 C.3     1  UNL1        0.0059
     26 C         141.4059  144.9580  163.9055 C.3     1  UNL1        0.0417
     27 C         141.6406  144.8201  162.4304 C.2     1  UNL1        0.0503
     28 O         140.4955  144.9633  161.4721 O.co2   1  UNL1       -0.5492
     29 O         143.0203  144.5391  161.9135 O.co2   1  UNL1       -0.5492
@<TRIPOS>UNITY_ATOM_ATTR
28 1
charge -1
@<TRIPOS>BOND
     1    19    20    1
     2    20    17    1
     3    17    18    3
     4    18    16    1
     5    16    14    1
     6    14    15    1
     7    14    11    1
     8    11    12    1
     9    11     9    1
    10     9    10    2
    11     1    10    1
    12     1     2    1
    13     2     3    1
    14     3     4    1
    15     3     5    1
    16     3     6    1
    17     6     7    2
    18     6     8   am
    19     8    21    1
    20    21    22    1
    21    22    23    1
    22    23    24    1
    23    24    25    1
    24    25    26    1
    25    26    27    1
    26    27    28   ar
    27    27    29   ar
    28     8     1    1
    29    12    13    1
@<TRIPOS>MOLECULE
*****
 29 29 0 0 0
SMALL
GASTEIGER

@<TRIPOS>ATOM
      1 C         140.6881  141.8266  168.0681 C.3     1  UNL1        0.1035
      2 C         140.3440  143.0082  168.9256 C.3     1  UNL1        0.1002
      3 C         141.5767  143.4071  169.6814 C.3     1  UNL1        0.3324
      4 F         142.6241  144.0287  170.5571 F       1  UNL1       -0.1945
      5 F         140.6898  144.4721  170.2550 F       1  UNL1       -0.1945
      6 C         142.6827  142.4721  169.2910 C.2     1  UNL1        0.2871
      7 O         144.0907  142.5075  169.8070 O.2     1  UNL1       -0.2690
      8 N         142.1335  141.4953  168.2939 N.am    1  UNL1       -0.2728
      9 C         139.3663  139.6821  167.4325 C.2     1  UNL1       -0.0004
     10 C         139.7512  141.1034  167.1465 C.2     1  UNL1       -0.0087
     11 C         138.4294  138.9589  166.5110 C.3     1  UNL1        0.1331
     12 O         137.1377  138.4066  167.0367 O.3     1  UNL1       -0.3800
     13 H         136.6545  137.9728  166.3162 H       1  UNL1        0.2108
     14 C         138.7844  138.7879  165.0636 C.3     1  UNL1        0.0441
     15 C         139.8258  137.7866  164.6600 C.3     1  UNL1        0.0039
     16 C         138.0979  139.6181  164.0199 C.3     1  UNL1        0.0788
     17 C         137.9031  142.5926  164.3585 C.1     1  UNL1       -0.0911
     18 C         138.0005  141.1054  164.1892 C.1     1  UNL1       -0.0910
     19 C         138.7223  144.7878  165.4810 C.3     1  UNL1        0.0150
     20 C         137.8056  144.0798  164.5278 C.3     1  UNL1        0.0761
     21 C         142.8959  140.3825  167.6378 C.3     1  UNL1        0.0938
     22 C         143.0959  140.3850  166.1512 C.3     1  UNL1        0.0215
     23 C         143.0024  141.6707  165.3841 C.3     1  UNL1        0.0018
     24 C         144.2513  142.4081  165.0013 C.3     1  UNL1        0.0004
     25 C         144.2493  143.9070  164.9434 C.3     1  UNL1        0.0059
     26 C         143.3098  144.6206  164.0171 C.3     1  UNL1        0.0417
     27 C         143.4225  144.4212  162.5347 C.2     1  UNL1        0.0503
     28 O         142.2578  144.7392  161.6445 O.co2   1  UNL1       -0.5492
     29 O         144.6998  143.9039  161.9425 O.co2   1  UNL1       -0.5492
@<TRIPOS>UNITY_ATOM_ATTR
28 1
charge -1
@<TRIPOS>BOND
     1    19    20    1
     2    20    17    1
     3    17    18    3
     4    18    16    1
     5    16    14    1
     6    14    15    1
     7    14    11    1
     8    11    12    1
     9    11     9    1
    10     9    10    2
    11     1    10    1
    12     1     2    1
    13     2     3    1
    14     3     4    1
    15     3     5    1
    16     3     6    1
    17     6     7    2
    18     6     8   am
    19     8    21    1
    20    21    22    1
    21    22    23    1
    22    23    24    1
    23    24    25    1
    24    25    26    1
    25    26    27    1
    26    27    28   ar
    27    27    29   ar
    28     8     1    1
    29    12    13    1
@<TRIPOS>MOLECULE
*****
 29 29 0 0 0
SMALL
GASTEIGER

@<TRIPOS>ATOM
      1 C         141.6466  142.3430  164.2335 C.3     1  UNL1        0.1035
      2 C         141.4546  143.8087  163.9789 C.3     1  UNL1        0.1002
      3 C         142.7416  144.5080  164.3025 C.3     1  UNL1        0.3324
      4 F         143.8716  145.4651  164.5415 F       1  UNL1       -0.1945
      5 F         141.9905  145.7416  163.8978 F       1  UNL1       -0.1945
      6 C         143.7290  143.4744  164.7572 C.2     1  UNL1        0.2871
      7 O         145.1446  143.7333  165.1802 O.2     1  UNL1       -0.2690
      8 N         143.0523  142.1364  164.7146 N.am    1  UNL1       -0.2728
      9 C         139.4166  141.2140  164.9423 C.2     1  UNL1       -0.0004
     10 C         140.6142  141.2720  164.0410 C.2     1  UNL1       -0.0087
     11 C         138.3842  140.1430  164.7497 C.3     1  UNL1        0.1331
     12 O         137.2956  140.3246  163.7339 O.3     1  UNL1       -0.3800
     13 H         136.7173  139.5458  163.7370 H       1  UNL1        0.2108
     14 C         138.4404  138.8904  165.5731 C.3     1  UNL1        0.0441
     15 C         137.9624  138.9053  166.9948 C.3     1  UNL1        0.0039
     16 C         138.9747  137.6229  164.9747 C.3     1  UNL1        0.0788
     17 C         140.9299  137.7445  162.7027 C.1     1  UNL1       -0.0911
     18 C         139.9523  137.6837  163.8387 C.1     1  UNL1       -0.0910
     19 C         143.3585  138.0710  161.8392 C.3     1  UNL1        0.0150
     20 C         141.9075  137.8053  161.5667 C.3     1  UNL1        0.0761
     21 C         143.6723  140.8225  165.0875 C.3     1  UNL1        0.0938
     22 C         142.8114  139.6040  165.2424 C.3     1  UNL1        0.0215
     23 C         142.5029  139.0728  166.6109 C.3     1  UNL1        0.0018
     24 C         141.7134  139.9045  167.5778 C.3     1  UNL1        0.0004
     25 C         141.8031  139.6309  169.0499 C.3     1  UNL1        0.0059
     26 C         141.7551  140.7670  170.0282 C.3     1  UNL1        0.0417
     27 C         140.6545  140.8351  171.0451 C.2     1  UNL1        0.0503
     28 O         140.5789  141.9961  171.9918 O.co2   1  UNL1       -0.5492
     29 O         139.6294  139.7422  171.1151 O.co2   1  UNL1       -0.5492
@<TRIPOS>UNITY_ATOM_ATTR
28 1
charge -1
@<TRIPOS>BOND
     1    19    20    1
     2    20    17    1
     3    17    18    3
     4    18    16    1
     5    16    14    1
     6    14    15    1
     7    14    11    1
     8    11    12    1
     9    11     9    1
    10     9    10    2
    11     1    10    1
    12     1     2    1
    13     2     3    1
    14     3     4    1
    15     3     5    1
    16     3     6    1
    17     6     7    2
    18     6     8   am
    19     8    21    1
    20    21    22    1
    21    22    23    1
    22    23    24    1
    23    24    25    1
    24    25    26    1
    25    26    27    1
    26    27    28   ar
    27    27    29   ar
    28     8     1    1
    29    12    13    1
@<TRIPOS>MOLECULE
*****
 29 29 0 0 0
SMALL
GASTEIGER

@<TRIPOS>ATOM
      1 C         142.2876  141.3821  164.1628 C.3     1  UNL1        0.1035
      2 C         143.7764  141.4272  163.9857 C.3     1  UNL1        0.1002
      3 C         144.3508  140.1695  164.5672 C.3     1  UNL1        0.3324
      4 F         145.1992  139.0340  165.0581 F       1  UNL1       -0.1945
      5 F         145.6620  140.7546  164.1333 F       1  UNL1       -0.1945
      6 C         143.2169  139.3470  165.1038 C.2     1  UNL1        0.2871
      7 O         143.3370  138.0098  165.7728 O.2     1  UNL1       -0.2690
      8 N         141.9418  140.0964  164.8538 N.am    1  UNL1       -0.2728
      9 C         141.2403  143.7404  164.4645 C.2     1  UNL1       -0.0004
     10 C         141.3153  142.4373  163.7256 C.2     1  UNL1       -0.0087
     11 C         140.2679  144.7957  164.0274 C.3     1  UNL1        0.1331
     12 O         140.7363  145.9436  163.1831 O.3     1  UNL1       -0.3800
     13 H         139.9879  146.5298  162.9905 H       1  UNL1        0.2108
     14 C         138.8272  144.7029  164.4346 C.3     1  UNL1        0.0441
     15 C         138.4142  145.0889  165.8240 C.3     1  UNL1        0.0039
     16 C         137.7996  144.2242  163.4524 C.3     1  UNL1        0.0788
     17 C         137.7510  141.3435  162.6164 C.1     1  UNL1       -0.0911
     18 C         137.7753  142.7838  163.0344 C.1     1  UNL1       -0.0910
     19 C         137.6318  139.5455  160.7447 C.3     1  UNL1        0.0150
     20 C         137.7268  139.9031  162.1984 C.3     1  UNL1        0.0761
     21 C         140.5630  139.6402  165.2290 C.3     1  UNL1        0.0938
     22 C         139.6464  140.5610  165.9786 C.3     1  UNL1        0.0215
     23 C         139.9856  140.9811  167.3781 C.3     1  UNL1        0.0018
     24 C         140.6109  142.3214  167.6280 C.3     1  UNL1        0.0004
     25 C         141.8240  142.4316  168.5033 C.3     1  UNL1        0.0059
     26 C         141.6861  142.9044  169.9201 C.3     1  UNL1        0.0417
     27 C         141.5147  141.9095  171.0295 C.2     1  UNL1        0.0503
     28 O         140.5796  142.2052  172.1644 O.co2   1  UNL1       -0.5492
     29 O         142.2785  140.6187  171.0040 O.co2   1  UNL1       -0.5492
@<TRIPOS>UNITY_ATOM_ATTR
28 1
charge -1
@<TRIPOS>BOND
     1    19    20    1
     2    20    17    1
     3    17    18    3
     4    18    16    1
     5    16    14    1
     6    14    15    1
     7    14    11    1
     8    11    12    1
     9    11     9    1
    10     9    10    2
    11     1    10    1
    12     1     2    1
    13     2     3    1
    14     3     4    1
    15     3     5    1
    16     3     6    1
    17     6     7    2
    18     6     8   am
    19     8    21    1
    20    21    22    1
    21    22    23    1
    22    23    24    1
    23    24    25    1
    24    25    26    1
    25    26    27    1
    26    27    28   ar
    27    27    29   ar
    28     8     1    1
    29    12    13    1
@<TRIPOS>MOLECULE
*****
 29 29 0 0 0
SMALL
GASTEIGER

@<TRIPOS>ATOM
      1 C         141.4608  139.3704  163.7780 C.3     1  UNL1        0.1035
      2 C         140.8484  138.7616  162.5515 C.3     1  UNL1        0.1002
      3 C         139.6852  137.9188  162.9836 C.3     1  UNL1        0.3324
      4 F         138.4922  137.0182  163.1090 F       1  UNL1       -0.1945
      5 F         139.5422  137.6427  161.5162 F       1  UNL1       -0.1945
      6 C         139.5788  138.0066  164.4773 C.2     1  UNL1        0.2871
      7 O         138.5548  137.3182  165.3302 O.2     1  UNL1       -0.2690
      8 N         140.6761  138.9037  164.9682 N.am    1  UNL1       -0.2728
      9 C         142.5604  141.6510  163.1955 C.2     1  UNL1       -0.0004
     10 C         142.6492  140.2851  163.8089 C.2     1  UNL1       -0.0087
     11 C         143.7488  142.5658  163.2264 C.3     1  UNL1        0.1331
     12 O         144.9229  142.3006  162.3313 O.3     1  UNL1       -0.3800
     13 H         145.5993  142.9808  162.4752 H       1  UNL1        0.2108
     14 C         143.7631  143.7458  164.1524 C.3     1  UNL1        0.0441
     15 C         144.6675  143.7492  165.3490 C.3     1  UNL1        0.0039
     16 C         142.8729  144.9224  163.8817 C.3     1  UNL1        0.0788
     17 C         139.9182  144.7081  164.3550 C.1     1  UNL1       -0.0911
     18 C         141.3955  144.8153  164.1184 C.1     1  UNL1       -0.0910
     19 C         137.7282  143.3110  164.3123 C.3     1  UNL1        0.0150
     20 C         138.4409  144.6010  164.5917 C.3     1  UNL1        0.0761
     21 C         140.9421  139.2699  166.3983 C.3     1  UNL1        0.0938
     22 C         140.1241  140.3365  167.0640 C.3     1  UNL1        0.0215
     23 C         140.2377  141.7617  166.6101 C.3     1  UNL1        0.0018
     24 C         141.3197  142.6409  167.1635 C.3     1  UNL1        0.0004
     25 C         141.5515  142.7033  168.6442 C.3     1  UNL1        0.0059
     26 C         140.4420  143.1285  169.5598 C.3     1  UNL1        0.0417
     27 C         139.9521  142.1962  170.6278 C.2     1  UNL1        0.0503
     28 O         138.8328  141.2417  170.3345 O.co2   1  UNL1       -0.5492
     29 O         140.5814  142.2185  171.9892 O.co2   1  UNL1       -0.5492
@<TRIPOS>UNITY_ATOM_ATTR
28 1
charge -1
@<TRIPOS>BOND
     1    19    20    1
     2    20    17    1
     3    17    18    3
     4    18    16    1
     5    16    14    1
     6    14    15    1
     7    14    11    1
     8    11    12    1
     9    11     9    1
    10     9    10    2
    11     1    10    1
    12     1     2    1
    13     2     3    1
    14     3     4    1
    15     3     5    1
    16     3     6    1
    17     6     7    2
    18     6     8   am
    19     8    21    1
    20    21    22    1
    21    22    23    1
    22    23    24    1
    23    24    25    1
    24    25    26    1
    25    26    27    1
    26    27    28   ar
    27    27    29   ar
    28     8     1    1
    29    12    13    1
@<TRIPOS>MOLECULE
*****
 29 29 0 0 0
SMALL
GASTEIGER

@<TRIPOS>ATOM
      1 C         142.8900  141.8128  167.1259 C.3     1  UNL1        0.1035
      2 C         143.3962  142.4207  168.4003 C.3     1  UNL1        0.1002
      3 C         143.3613  141.3637  169.4641 C.3     1  UNL1        0.3324
      4 F         143.4401  140.5341  170.7113 F       1  UNL1       -0.1945
      5 F         143.9055  142.4515  170.3418 F       1  UNL1       -0.1945
      6 C         142.8335  140.1025  168.8471 C.2     1  UNL1        0.2871
      7 O         142.6323  138.7935  169.5514 O.2     1  UNL1       -0.2690
      8 N         142.5423  140.3800  167.4020 N.am    1  UNL1       -0.2728
      9 C         143.9543  143.1532  165.1713 C.2     1  UNL1       -0.0004
     10 C         142.7552  142.5144  165.8070 C.2     1  UNL1       -0.0087
     11 C         143.8195  143.8548  163.8524 C.3     1  UNL1        0.1331
     12 O         143.8462  145.3534  163.7938 O.3     1  UNL1       -0.3800
     13 H         143.7477  145.6428  162.8733 H       1  UNL1        0.2108
     14 C         143.6581  143.0577  162.5919 C.3     1  UNL1        0.0441
     15 C         144.8331  142.3299  162.0091 C.3     1  UNL1        0.0039
     16 C         142.3217  142.9885  161.9143 C.3     1  UNL1        0.0788
     17 C         139.8110  142.9024  163.5542 C.1     1  UNL1       -0.0911
     18 C         141.0663  142.9455  162.7343 C.1     1  UNL1       -0.0910
     19 C         137.8203  144.1288  164.6869 C.3     1  UNL1        0.0150
     20 C         138.5557  142.8594  164.3742 C.3     1  UNL1        0.0761
     21 C         141.9987  139.3972  166.4077 C.3     1  UNL1        0.0938
     22 C         140.5205  139.3137  166.1668 C.3     1  UNL1        0.0215
     23 C         139.5858  140.2120  166.9215 C.3     1  UNL1        0.0018
     24 C         139.0174  139.7679  168.2367 C.3     1  UNL1        0.0004
     25 C         139.2965  140.5594  169.4799 C.3     1  UNL1        0.0059
     26 C         139.8305  141.9572  169.3751 C.3     1  UNL1        0.0417
     27 C         140.0343  142.7771  170.6146 C.2     1  UNL1        0.0503
     28 O         140.5410  142.1280  171.8683 O.co2   1  UNL1       -0.5492
     29 O         139.7315  144.2461  170.6003 O.co2   1  UNL1       -0.5492
@<TRIPOS>UNITY_ATOM_ATTR
28 1
charge -1
@<TRIPOS>BOND
     1    19    20    1
     2    20    17    1
     3    17    18    3
     4    18    16    1
     5    16    14    1
     6    14    15    1
     7    14    11    1
     8    11    12    1
     9    11     9    1
    10     9    10    2
    11     1    10    1
    12     1     2    1
    13     2     3    1
    14     3     4    1
    15     3     5    1
    16     3     6    1
    17     6     7    2
    18     6     8   am
    19     8    21    1
    20    21    22    1
    21    22    23    1
    22    23    24    1
    23    24    25    1
    24    25    26    1
    25    26    27    1
    26    27    28   ar
    27    27    29   ar
    28     8     1    1
    29    12    13    1
