@<TRIPOS>MOLECULE
*****
 37 40 0 0 0
SMALL
GASTEIGER

@<TRIPOS>ATOM
      1 C         141.2168  139.9351  164.4854 C.2     1  UNL1        0.1397
      2 C         141.2773  140.0451  162.9907 C.2     1  UNL1        0.1355
      3 N         140.9857  141.3562  162.3227 N.pl3   1  UNL1       -0.1998
      4 C         140.6337  142.5572  163.1495 C.2     1  UNL1        0.3442
      5 N         140.5732  142.4472  164.6442 N.2     1  UNL1       -0.0580
      6 C         140.8648  141.1361  165.3121 C.3     1  UNL1        0.2692
      7 H         141.0254  141.4283  161.3417 H       1  UNL1        0.2983
      8 C         140.8044  141.0262  166.8069 C.ar    1  UNL1        0.0371
      9 C         139.6016  140.4189  167.4662 C.ar    1  UNL1        0.0030
     10 C         139.5411  140.3089  168.9609 C.ar    1  UNL1        0.0295
     11 C         140.6834  140.8062  169.7964 C.ar    1  UNL1        0.1406
     12 F         140.6229  140.6962  171.2911 F       1  UNL1       -0.2042
     13 C         141.8861  141.4135  169.1371 C.ar    1  UNL1        0.0362
     14 C         141.9466  141.5235  167.6423 C.ar    1  UNL1        0.0372
     15 BR        143.1493  142.1307  166.9831 Br      1  UNL1       -0.0491
     16 C         140.3421  143.8682  162.4815 C.ar    1  UNL1        0.1931
     17 N         140.6464  144.2178  161.0549 N.ar    1  UNL1       -0.2297
     18 C         140.1874  145.6255  160.8146 C.ar    1  UNL1        0.1067
     19 C         139.5995  146.1459  162.0927 C.ar    1  UNL1        0.0577
     20 S         139.6951  145.0599  163.1229 S.2     1  UNL1       -0.0586
     21 C         141.5084  138.6241  165.1533 C.2     1  UNL1        0.3447
     22 O         142.8038  138.4258  165.8830 O.2     1  UNL1       -0.2450
     23 O         140.5046  137.5112  165.0916 O.3     1  UNL1       -0.4455
     24 C         138.1033  137.5440  166.0831 C.3     1  UNL1        0.0513
     25 C         139.0447  137.8251  164.9495 C.3     1  UNL1        0.2089
     26 C         141.6293  138.8440  162.1638 C.3     1  UNL1        0.1404
     27 N         141.3055  138.8206  160.6994 N.3     1  UNL1       -0.2628
     28 C         142.3479  139.2125  159.6944 C.3     1  UNL1        0.1049
     29 C         142.0240  139.1891  158.2300 C.3     1  UNL1        0.1595
     30 O         140.6579  138.7736  157.7705 O.3     1  UNL1       -0.3509
     31 C         139.6156  138.3817  158.7755 C.3     1  UNL1        0.1580
     32 C         139.9394  138.4052  160.2399 C.3     1  UNL1        0.0880
     33 C         138.8971  138.0132  161.2448 C.3     1  UNL1        0.0244
     34 C         137.6913  138.8810  161.4522 C.3     1  UNL1        0.0432
     35 C         137.8592  140.3065  161.8880 C.2     1  UNL1        0.0504
     36 O         138.1206  141.3763  160.8696 O.co2   1  UNL1       -0.5492
     37 O         137.7656  140.6621  163.3422 O.co2   1  UNL1       -0.5492
@<TRIPOS>UNITY_ATOM_ATTR
36 1
charge -1
@<TRIPOS>BOND
     1    24    25    1
     2    25    23    1
     3    23    21    1
     4    21    22    2
     5    21     1    1
     6     1     2    2
     7     2    26    1
     8    26    27    1
     9    27    28    1
    10    28    29    1
    11    29    30    1
    12    30    31    1
    13    31    32    1
    14    32    33    1
    15    33    34    1
    16    34    35    1
    17    35    36   ar
    18    35    37   ar
    19     2     3    1
    20     3     4    1
    21     4    16    1
    22    16    17   ar
    23    17    18   ar
    24    18    19   ar
    25    19    20   ar
    26     4     5    2
    27     5     6    1
    28     6     8    1
    29     8     9   ar
    30     9    10   ar
    31    10    11   ar
    32    11    12    1
    33    11    13   ar
    34    13    14   ar
    35    14    15    1
    36     6     1    1
    37    14     8   ar
    38    32    27    1
    39    20    16   ar
    40     3     7    1
@<TRIPOS>MOLECULE
*****
 37 40 0 0 0
SMALL
GASTEIGER

@<TRIPOS>ATOM
      1 C         141.3483  139.7434  164.0173 C.2     1  UNL1        0.1397
      2 C         141.5570  139.9781  162.5506 C.2     1  UNL1        0.1355
      3 N         141.2640  141.3243  161.9573 N.pl3   1  UNL1       -0.1998
      4 C         140.7622  142.4357  162.8307 C.2     1  UNL1        0.3442
      5 N         140.5535  142.2009  164.2975 N.2     1  UNL1       -0.0580
      6 C         140.8465  140.8548  164.8907 C.3     1  UNL1        0.2692
      7 H         141.4010  141.4783  160.9947 H       1  UNL1        0.2983
      8 C         140.6377  140.6201  166.3575 C.ar    1  UNL1        0.0371
      9 C         141.7306  140.9453  167.3321 C.ar    1  UNL1        0.0030
     10 C         141.5219  140.7106  168.7988 C.ar    1  UNL1        0.0295
     11 C         140.2202  140.1506  169.2910 C.ar    1  UNL1        0.1406
     12 F         140.0115  139.9160  170.7577 F       1  UNL1       -0.2042
     13 C         139.1273  139.8254  168.3164 C.ar    1  UNL1        0.0362
     14 C         139.3361  140.0601  166.8496 C.ar    1  UNL1        0.0372
     15 BR        138.2432  139.7349  165.8751 Br      1  UNL1       -0.0491
     16 C         140.4692  143.7819  162.2375 C.ar    1  UNL1        0.1931
     17 N         140.6993  144.1859  160.8114 N.ar    1  UNL1       -0.2297
     18 C         140.2669  145.6141  160.6586 C.ar    1  UNL1        0.1067
     19 C         139.7696  146.0927  161.9904 C.ar    1  UNL1        0.0577
     20 S         139.8946  144.9604  162.9661 S.2     1  UNL1       -0.0586
     21 C         141.6413  138.3972  164.6106 C.2     1  UNL1        0.3447
     22 O         140.5581  137.3632  164.6956 O.2     1  UNL1       -0.2450
     23 O         143.0176  138.0851  165.1188 O.3     1  UNL1       -0.4455
     24 C         145.0110  139.4725  164.1960 C.3     1  UNL1        0.0513
     25 C         144.0225  139.1859  165.2873 C.3     1  UNL1        0.2089
     26 C         142.0589  138.8667  161.6771 C.3     1  UNL1        0.1404
     27 N         141.6032  138.7693  160.2513 N.3     1  UNL1       -0.2628
     28 C         142.5920  138.9324  159.1352 C.3     1  UNL1        0.1049
     29 C         142.1363  138.8350  157.7093 C.3     1  UNL1        0.1595
     30 O         140.6919  138.5745  157.3997 O.3     1  UNL1       -0.3509
     31 C         139.7032  138.4114  158.5158 C.3     1  UNL1        0.1580
     32 C         140.1588  138.5088  159.9416 C.3     1  UNL1        0.0880
     33 C         139.1701  138.3457  161.0578 C.3     1  UNL1        0.0244
     34 C         137.8832  139.1162  161.0383 C.3     1  UNL1        0.0432
     35 C         137.8972  140.6045  161.2247 C.2     1  UNL1        0.0504
     36 O         138.5942  141.4790  160.2251 O.co2   1  UNL1       -0.5492
     37 O         137.2141  141.2182  162.4108 O.co2   1  UNL1       -0.5492
@<TRIPOS>UNITY_ATOM_ATTR
36 1
charge -1
@<TRIPOS>BOND
     1    24    25    1
     2    25    23    1
     3    23    21    1
     4    21    22    2
     5    21     1    1
     6     1     2    2
     7     2    26    1
     8    26    27    1
     9    27    28    1
    10    28    29    1
    11    29    30    1
    12    30    31    1
    13    31    32    1
    14    32    33    1
    15    33    34    1
    16    34    35    1
    17    35    36   ar
    18    35    37   ar
    19     2     3    1
    20     3     4    1
    21     4    16    1
    22    16    17   ar
    23    17    18   ar
    24    18    19   ar
    25    19    20   ar
    26     4     5    2
    27     5     6    1
    28     6     8    1
    29     8     9   ar
    30     9    10   ar
    31    10    11   ar
    32    11    12    1
    33    11    13   ar
    34    13    14   ar
    35    14    15    1
    36     6     1    1
    37    14     8   ar
    38    32    27    1
    39    20    16   ar
    40     3     7    1
@<TRIPOS>MOLECULE
*****
 37 40 0 0 0
SMALL
GASTEIGER

@<TRIPOS>ATOM
      1 C         139.1929  140.1175  167.9178 C.2     1  UNL1        0.1397
      2 C         138.0390  139.2322  167.5508 C.2     1  UNL1        0.1355
      3 N         137.2075  138.5990  168.6267 N.pl3   1  UNL1       -0.1998
      4 C         137.5298  138.8512  170.0698 C.2     1  UNL1        0.3442
      5 N         138.6837  139.7366  170.4369 N.2     1  UNL1       -0.0580
      6 C         139.5152  140.3697  169.3609 C.3     1  UNL1        0.2692
      7 H         136.4502  138.0179  168.3858 H       1  UNL1        0.2983
      8 C         140.6691  141.2551  169.7280 C.ar    1  UNL1        0.0371
      9 C         140.4705  142.7376  169.8413 C.ar    1  UNL1        0.0030
     10 C         141.6243  143.6229  170.2084 C.ar    1  UNL1        0.0295
     11 C         142.9767  143.0258  170.4623 C.ar    1  UNL1        0.1406
     12 F         144.1305  143.9112  170.8294 F       1  UNL1       -0.2042
     13 C         143.1753  141.5434  170.3491 C.ar    1  UNL1        0.0362
     14 C         142.0214  140.6580  169.9819 C.ar    1  UNL1        0.0372
     15 BR        142.2200  139.1755  169.8686 Br      1  UNL1       -0.0491
     16 C         136.6983  138.2181  171.1458 C.ar    1  UNL1        0.1931
     17 N         136.9077  136.8544  171.7343 N.ar    1  UNL1       -0.2297
     18 C         135.8502  136.6309  172.7744 C.ar    1  UNL1        0.1067
     19 C         134.9872  137.8566  172.8287 C.ar    1  UNL1        0.0577
     20 S         135.5114  138.8375  171.8222 S.2     1  UNL1       -0.0586
     21 C         140.0244  140.7506  166.8419 C.2     1  UNL1        0.3447
     22 O         139.5046  141.9444  166.0971 O.2     1  UNL1       -0.2450
     23 O         141.3756  140.1900  166.5107 O.3     1  UNL1       -0.4455
     24 C         143.1120  142.1152  166.6803 C.3     1  UNL1        0.0513
     25 C         142.4136  141.0633  165.8704 C.3     1  UNL1        0.2089
     26 C         137.7167  138.9799  166.1076 C.3     1  UNL1        0.1404
     27 N         138.8074  138.5993  165.1509 N.3     1  UNL1       -0.2628
     28 C         139.7585  137.4930  165.4994 C.3     1  UNL1        0.1049
     29 C         140.8493  137.1125  164.5426 C.3     1  UNL1        0.1595
     30 O         140.9890  137.8382  163.2374 O.3     1  UNL1       -0.3509
     31 C         140.0379  138.9446  162.8888 C.3     1  UNL1        0.1580
     32 C         138.9471  139.3251  163.8456 C.3     1  UNL1        0.0880
     33 C         137.9960  140.4314  163.4970 C.3     1  UNL1        0.0244
     34 C         138.0069  141.0236  162.1189 C.3     1  UNL1        0.0432
     35 C         137.9090  142.5097  161.9404 C.2     1  UNL1        0.0504
     36 O         138.1882  143.1241  160.6009 O.co2   1  UNL1       -0.5492
     37 O         137.5317  143.3813  163.1013 O.co2   1  UNL1       -0.5492
@<TRIPOS>UNITY_ATOM_ATTR
36 1
charge -1
@<TRIPOS>BOND
     1    24    25    1
     2    25    23    1
     3    23    21    1
     4    21    22    2
     5    21     1    1
     6     1     2    2
     7     2    26    1
     8    26    27    1
     9    27    28    1
    10    28    29    1
    11    29    30    1
    12    30    31    1
    13    31    32    1
    14    32    33    1
    15    33    34    1
    16    34    35    1
    17    35    36   ar
    18    35    37   ar
    19     2     3    1
    20     3     4    1
    21     4    16    1
    22    16    17   ar
    23    17    18   ar
    24    18    19   ar
    25    19    20   ar
    26     4     5    2
    27     5     6    1
    28     6     8    1
    29     8     9   ar
    30     9    10   ar
    31    10    11   ar
    32    11    12    1
    33    11    13   ar
    34    13    14   ar
    35    14    15    1
    36     6     1    1
    37    14     8   ar
    38    32    27    1
    39    20    16   ar
    40     3     7    1
@<TRIPOS>MOLECULE
*****
 37 40 0 0 0
SMALL
GASTEIGER

@<TRIPOS>ATOM
      1 C         140.2926  139.7080  164.2540 C.2     1  UNL1        0.1397
      2 C         140.0983  139.7984  162.7694 C.2     1  UNL1        0.1355
      3 N         140.0507  141.1397  162.0995 N.pl3   1  UNL1       -0.1998
      4 C         140.1973  142.3906  162.9143 C.2     1  UNL1        0.3442
      5 N         140.3915  142.3001  164.3988 N.2     1  UNL1       -0.0580
      6 C         140.4392  140.9589  165.0687 C.3     1  UNL1        0.2692
      7 H         139.9231  141.1991  161.1251 H       1  UNL1        0.2983
      8 C         140.6335  140.8685  166.5534 C.ar    1  UNL1        0.0371
      9 C         139.5373  140.3257  167.4215 C.ar    1  UNL1        0.0030
     10 C         139.7315  140.2353  168.9061 C.ar    1  UNL1        0.0295
     11 C         141.0220  140.6877  169.5226 C.ar    1  UNL1        0.1406
     12 F         141.2162  140.5973  171.0072 F       1  UNL1       -0.2042
     13 C         142.1182  141.2305  168.6545 C.ar    1  UNL1        0.0362
     14 C         141.9239  141.3209  167.1698 C.ar    1  UNL1        0.0372
     15 BR        143.0201  141.8637  166.3017 Br      1  UNL1       -0.0491
     16 C         140.1496  143.7318  162.2444 C.ar    1  UNL1        0.1931
     17 N         140.6848  144.0561  160.8812 N.ar    1  UNL1       -0.2297
     18 C         140.4244  145.5090  160.6144 C.ar    1  UNL1        0.1067
     19 C         139.7281  146.0828  161.8128 C.ar    1  UNL1        0.0577
     20 S         139.5583  144.9844  162.8202 S.2     1  UNL1       -0.0586
     21 C         140.3402  138.3667  164.9238 C.2     1  UNL1        0.3447
     22 O         139.0924  137.7771  165.5113 O.2     1  UNL1       -0.2450
     23 O         141.6357  137.6151  165.0061 O.3     1  UNL1       -0.4455
     24 C         143.7557  138.1375  166.4142 C.3     1  UNL1        0.0513
     25 C         142.9251  138.3604  165.1852 C.3     1  UNL1        0.2089
     26 C         139.9517  138.5476  161.9546 C.3     1  UNL1        0.1404
     27 N         140.4803  138.5001  160.5516 N.3     1  UNL1       -0.2628
     28 C         139.5569  138.7379  159.3937 C.3     1  UNL1        0.1049
     29 C         140.0856  138.6904  157.9908 C.3     1  UNL1        0.1595
     30 O         141.5376  138.4051  157.7457 O.3     1  UNL1       -0.3509
     31 C         142.4610  138.1672  158.9036 C.3     1  UNL1        0.1580
     32 C         141.9324  138.2147  160.3065 C.3     1  UNL1        0.0880
     33 C         142.8559  137.9768  161.4644 C.3     1  UNL1        0.0244
     34 C         144.1380  138.7478  161.5719 C.3     1  UNL1        0.0432
     35 C         144.1332  140.1357  162.1408 C.2     1  UNL1        0.0504
     36 O         143.1680  141.1576  161.6171 O.co2   1  UNL1       -0.5492
     37 O         145.0935  140.5019  163.2333 O.co2   1  UNL1       -0.5492
@<TRIPOS>UNITY_ATOM_ATTR
36 1
charge -1
@<TRIPOS>BOND
     1    24    25    1
     2    25    23    1
     3    23    21    1
     4    21    22    2
     5    21     1    1
     6     1     2    2
     7     2    26    1
     8    26    27    1
     9    27    28    1
    10    28    29    1
    11    29    30    1
    12    30    31    1
    13    31    32    1
    14    32    33    1
    15    33    34    1
    16    34    35    1
    17    35    36   ar
    18    35    37   ar
    19     2     3    1
    20     3     4    1
    21     4    16    1
    22    16    17   ar
    23    17    18   ar
    24    18    19   ar
    25    19    20   ar
    26     4     5    2
    27     5     6    1
    28     6     8    1
    29     8     9   ar
    30     9    10   ar
    31    10    11   ar
    32    11    12    1
    33    11    13   ar
    34    13    14   ar
    35    14    15    1
    36     6     1    1
    37    14     8   ar
    38    32    27    1
    39    20    16   ar
    40     3     7    1
@<TRIPOS>MOLECULE
*****
 37 40 0 0 0
SMALL
GASTEIGER

@<TRIPOS>ATOM
      1 C         142.2357  142.4648  163.9185 C.2     1  UNL1        0.1397
      2 C         142.0805  142.4356  162.4269 C.2     1  UNL1        0.1355
      3 N         140.9847  141.6234  161.8026 N.pl3   1  UNL1       -0.1998
      4 C         140.0442  140.8404  162.6700 C.2     1  UNL1        0.3442
      5 N         140.1995  140.8696  164.1616 N.2     1  UNL1       -0.0580
      6 C         141.2952  141.6818  164.7858 C.3     1  UNL1        0.2692
      7 H         140.8829  141.6042  160.8236 H       1  UNL1        0.2983
      8 C         141.4504  141.7110  166.2776 C.ar    1  UNL1        0.0371
      9 C         140.7818  142.7874  167.0802 C.ar    1  UNL1        0.0030
     10 C         140.9369  142.8166  168.5719 C.ar    1  UNL1        0.0295
     11 C         141.7608  141.7695  169.2609 C.ar    1  UNL1        0.1406
     12 F         141.9160  141.7987  170.7525 F       1  UNL1       -0.2042
     13 C         142.4295  140.6931  168.4582 C.ar    1  UNL1        0.0362
     14 C         142.2743  140.6639  166.9665 C.ar    1  UNL1        0.0372
     15 BR        142.9429  139.5875  166.1639 Br      1  UNL1       -0.0491
     16 C         138.9485  140.0282  162.0457 C.ar    1  UNL1        0.1931
     17 N         137.9740  140.5092  161.0117 N.ar    1  UNL1       -0.2297
     18 C         137.0581  139.3707  160.6728 C.ar    1  UNL1        0.1067
     19 C         137.4665  138.1861  161.4973 C.ar    1  UNL1        0.0577
     20 S         138.6348  138.5924  162.3458 S.2     1  UNL1       -0.0586
     21 C         143.3315  143.2770  164.5427 C.2     1  UNL1        0.3447
     22 O         143.1816  144.7637  164.6737 O.2     1  UNL1       -0.2450
     23 O         144.5771  142.6024  165.0360 O.3     1  UNL1       -0.4455
     24 C         145.3131  140.6151  163.5330 C.3     1  UNL1        0.0513
     25 C         145.5424  142.0016  164.0576 C.3     1  UNL1        0.2089
     26 C         143.0210  143.2185  161.5594 C.3     1  UNL1        0.1404
     27 N         142.5255  143.8428  160.2887 N.3     1  UNL1       -0.2628
     28 C         143.0411  143.3604  158.9653 C.3     1  UNL1        0.1049
     29 C         142.5456  143.9848  157.6946 C.3     1  UNL1        0.1595
     30 O         141.5344  145.0915  157.7473 O.3     1  UNL1       -0.3509
     31 C         141.0188  145.5739  159.0707 C.3     1  UNL1        0.1580
     32 C         141.5143  144.9496  160.3414 C.3     1  UNL1        0.0880
     33 C         140.9987  145.4320  161.6648 C.3     1  UNL1        0.0244
     34 C         139.5213  145.5439  161.8985 C.3     1  UNL1        0.0432
     35 C         138.8274  144.5626  162.7960 C.2     1  UNL1        0.0504
     36 O         139.2142  144.4652  164.2419 O.co2   1  UNL1       -0.5492
     37 O         137.7467  143.6787  162.2475 O.co2   1  UNL1       -0.5492
@<TRIPOS>UNITY_ATOM_ATTR
36 1
charge -1
@<TRIPOS>BOND
     1    24    25    1
     2    25    23    1
     3    23    21    1
     4    21    22    2
     5    21     1    1
     6     1     2    2
     7     2    26    1
     8    26    27    1
     9    27    28    1
    10    28    29    1
    11    29    30    1
    12    30    31    1
    13    31    32    1
    14    32    33    1
    15    33    34    1
    16    34    35    1
    17    35    36   ar
    18    35    37   ar
    19     2     3    1
    20     3     4    1
    21     4    16    1
    22    16    17   ar
    23    17    18   ar
    24    18    19   ar
    25    19    20   ar
    26     4     5    2
    27     5     6    1
    28     6     8    1
    29     8     9   ar
    30     9    10   ar
    31    10    11   ar
    32    11    12    1
    33    11    13   ar
    34    13    14   ar
    35    14    15    1
    36     6     1    1
    37    14     8   ar
    38    32    27    1
    39    20    16   ar
    40     3     7    1
@<TRIPOS>MOLECULE
*****
 37 40 0 0 0
SMALL
GASTEIGER

@<TRIPOS>ATOM
      1 C         140.7591  140.7442  161.5875 C.2     1  UNL1        0.1397
      2 C         140.1692  141.1136  160.2588 C.2     1  UNL1        0.1355
      3 N         140.4772  140.2870  159.0456 N.pl3   1  UNL1       -0.1998
      4 C         141.3751  139.0911  159.1611 C.2     1  UNL1        0.3442
      5 N         141.9651  138.7217  160.4898 N.2     1  UNL1       -0.0580
      6 C         141.6571  139.5483  161.7030 C.3     1  UNL1        0.2692
      7 H         140.0900  140.5295  158.1735 H       1  UNL1        0.2983
      8 C         142.2471  139.1788  163.0317 C.ar    1  UNL1        0.0371
      9 C         141.4664  138.3269  163.9882 C.ar    1  UNL1        0.0030
     10 C         142.0563  137.9575  165.3169 C.ar    1  UNL1        0.0295
     11 C         143.4270  138.4400  165.6892 C.ar    1  UNL1        0.1406
     12 F         144.0169  138.0705  167.0179 F       1  UNL1       -0.2042
     13 C         144.2077  139.2919  164.7327 C.ar    1  UNL1        0.0362
     14 C         143.6177  139.6613  163.4040 C.ar    1  UNL1        0.0372
     15 BR        144.3984  140.5132  162.4475 Br      1  UNL1       -0.0491
     16 C         141.6831  138.2645  157.9478 C.ar    1  UNL1        0.1931
     17 N         143.0459  137.8185  157.5076 N.ar    1  UNL1       -0.2297
     18 C         142.8875  137.0172  156.2495 C.ar    1  UNL1        0.1067
     19 C         141.4267  136.9679  155.9122 C.ar    1  UNL1        0.0577
     20 S         140.6824  137.7388  156.9618 S.2     1  UNL1       -0.0586
     21 C         140.4511  141.5708  162.8008 C.2     1  UNL1        0.3447
     22 O         141.4685  142.5396  163.3262 O.2     1  UNL1       -0.2450
     23 O         139.1257  141.4285  163.4885 O.3     1  UNL1       -0.4455
     24 C         138.2599  139.8596  165.3697 C.3     1  UNL1        0.0513
     25 C         139.0700  141.0458  164.9378 C.3     1  UNL1        0.2089
     26 C         139.2712  142.3096  160.1433 C.3     1  UNL1        0.1404
     27 N         139.5290  143.3417  159.0858 N.3     1  UNL1       -0.2628
     28 C         139.0578  143.1098  157.6808 C.3     1  UNL1        0.1049
     29 C         139.3156  144.1419  156.6233 C.3     1  UNL1        0.1595
     30 O         140.0446  145.4059  156.9708 O.3     1  UNL1       -0.3509
     31 C         140.5158  145.6378  158.3759 C.3     1  UNL1        0.1580
     32 C         140.2580  144.6057  159.4334 C.3     1  UNL1        0.0880
     33 C         140.7292  144.8376  160.8384 C.3     1  UNL1        0.0244
     34 C         139.9231  145.6956  161.7679 C.3     1  UNL1        0.0432
     35 C         139.0576  145.0594  162.8148 C.2     1  UNL1        0.0504
     36 O         137.7246  144.4842  162.4379 O.co2   1  UNL1       -0.5492
     37 O         139.5251  144.9985  164.2388 O.co2   1  UNL1       -0.5492
@<TRIPOS>UNITY_ATOM_ATTR
36 1
charge -1
@<TRIPOS>BOND
     1    24    25    1
     2    25    23    1
     3    23    21    1
     4    21    22    2
     5    21     1    1
     6     1     2    2
     7     2    26    1
     8    26    27    1
     9    27    28    1
    10    28    29    1
    11    29    30    1
    12    30    31    1
    13    31    32    1
    14    32    33    1
    15    33    34    1
    16    34    35    1
    17    35    36   ar
    18    35    37   ar
    19     2     3    1
    20     3     4    1
    21     4    16    1
    22    16    17   ar
    23    17    18   ar
    24    18    19   ar
    25    19    20   ar
    26     4     5    2
    27     5     6    1
    28     6     8    1
    29     8     9   ar
    30     9    10   ar
    31    10    11   ar
    32    11    12    1
    33    11    13   ar
    34    13    14   ar
    35    14    15    1
    36     6     1    1
    37    14     8   ar
    38    32    27    1
    39    20    16   ar
    40     3     7    1
@<TRIPOS>MOLECULE
*****
 37 40 0 0 0
SMALL
GASTEIGER

@<TRIPOS>ATOM
      1 C         140.7268  140.8194  161.6325 C.2     1  UNL1        0.1397
      2 C         140.0710  141.1963  160.3372 C.2     1  UNL1        0.1355
      3 N         140.2212  140.3116  159.1353 N.pl3   1  UNL1       -0.1998
      4 C         141.0271  139.0500  159.2286 C.2     1  UNL1        0.3442
      5 N         141.6829  138.6731  160.5239 N.2     1  UNL1       -0.0580
      6 C         141.5327  139.5578  161.7258 C.3     1  UNL1        0.2692
      7 H         139.7907  140.5590  158.2851 H       1  UNL1        0.2983
      8 C         142.1886  139.1808  163.0212 C.ar    1  UNL1        0.0371
      9 C         143.5951  139.6181  163.3048 C.ar    1  UNL1        0.0030
     10 C         144.2510  139.2412  164.6001 C.ar    1  UNL1        0.0295
     11 C         143.5003  138.4269  165.6118 C.ar    1  UNL1        0.1406
     12 F         144.1561  138.0500  166.9070 F       1  UNL1       -0.2042
     13 C         142.0938  137.9896  165.3282 C.ar    1  UNL1        0.0362
     14 C         141.4379  138.3666  164.0328 C.ar    1  UNL1        0.0372
     15 BR        140.0314  137.9293  163.7492 Br      1  UNL1       -0.0491
     16 C         141.1773  138.1653  158.0266 C.ar    1  UNL1        0.1931
     17 N         140.0685  137.7015  157.1291 N.ar    1  UNL1       -0.2297
     18 C         140.6685  136.8386  156.0589 C.ar    1  UNL1        0.1067
     19 C         142.1482  136.7691  156.2949 C.ar    1  UNL1        0.0577
     20 S         142.4626  137.5890  157.5110 S.2     1  UNL1       -0.0586
     21 C         140.5766  141.7041  162.8345 C.2     1  UNL1        0.3447
     22 O         139.3139  141.6628  163.6431 O.2     1  UNL1       -0.2450
     23 O         141.6892  142.6300  163.2280 O.3     1  UNL1       -0.4455
     24 C         143.5666  142.9609  164.9932 C.3     1  UNL1        0.0513
     25 C         142.1251  142.7123  164.6609 C.3     1  UNL1        0.2089
     26 C         139.2650  142.4579  160.2439 C.3     1  UNL1        0.1404
     27 N         139.5432  143.4465  159.1506 N.3     1  UNL1       -0.2628
     28 C         139.0679  143.1740  157.7543 C.3     1  UNL1        0.1049
     29 C         139.3462  144.1627  156.6610 C.3     1  UNL1        0.1595
     30 O         140.0997  145.4237  156.9641 O.3     1  UNL1       -0.3509
     31 C         140.5750  145.6962  158.3604 C.3     1  UNL1        0.1580
     32 C         140.2968  144.7076  159.4537 C.3     1  UNL1        0.0880
     33 C         140.7721  144.9801  160.8501 C.3     1  UNL1        0.0244
     34 C         139.9435  145.8233  161.7733 C.3     1  UNL1        0.0432
     35 C         139.0960  145.1722  162.8259 C.2     1  UNL1        0.0504
     36 O         139.6026  145.0603  164.2333 O.co2   1  UNL1       -0.5492
     37 O         137.7420  144.6331  162.4710 O.co2   1  UNL1       -0.5492
@<TRIPOS>UNITY_ATOM_ATTR
36 1
charge -1
@<TRIPOS>BOND
     1    24    25    1
     2    25    23    1
     3    23    21    1
     4    21    22    2
     5    21     1    1
     6     1     2    2
     7     2    26    1
     8    26    27    1
     9    27    28    1
    10    28    29    1
    11    29    30    1
    12    30    31    1
    13    31    32    1
    14    32    33    1
    15    33    34    1
    16    34    35    1
    17    35    36   ar
    18    35    37   ar
    19     2     3    1
    20     3     4    1
    21     4    16    1
    22    16    17   ar
    23    17    18   ar
    24    18    19   ar
    25    19    20   ar
    26     4     5    2
    27     5     6    1
    28     6     8    1
    29     8     9   ar
    30     9    10   ar
    31    10    11   ar
    32    11    12    1
    33    11    13   ar
    34    13    14   ar
    35    14    15    1
    36     6     1    1
    37    14     8   ar
    38    32    27    1
    39    20    16   ar
    40     3     7    1
@<TRIPOS>MOLECULE
*****
 37 40 0 0 0
SMALL
GASTEIGER

@<TRIPOS>ATOM
      1 C         139.2642  141.0525  160.8873 C.2     1  UNL1        0.1397
      2 C         139.3320  140.3202  159.5800 C.2     1  UNL1        0.1355
      3 N         139.0296  141.0412  158.2999 N.pl3   1  UNL1       -0.1998
      4 C         138.6594  142.4945  158.3271 C.2     1  UNL1        0.3442
      5 N         138.5916  143.2268  159.6344 N.2     1  UNL1       -0.0580
      6 C         138.8940  142.5058  160.9145 C.3     1  UNL1        0.2692
      7 H         139.0741  140.5606  157.4418 H       1  UNL1        0.2983
      8 C         138.8262  143.2381  162.2219 C.ar    1  UNL1        0.0371
      9 C         137.5866  143.1585  163.0627 C.ar    1  UNL1        0.0030
     10 C         137.5187  143.8907  164.3700 C.ar    1  UNL1        0.0295
     11 C         138.6905  144.7028  164.8366 C.ar    1  UNL1        0.1406
     12 F         138.6227  145.4351  166.1439 F       1  UNL1       -0.2042
     13 C         139.9301  144.7824  163.9958 C.ar    1  UNL1        0.0362
     14 C         139.9980  144.0501  162.6884 C.ar    1  UNL1        0.0372
     15 BR        141.2376  144.1298  161.8475 Br      1  UNL1       -0.0491
     16 C         138.3571  143.2156  157.0470 C.ar    1  UNL1        0.1931
     17 N         139.1744  144.3181  156.4418 N.ar    1  UNL1       -0.2297
     18 C         138.5068  144.7447  155.1681 C.ar    1  UNL1        0.1067
     19 C         137.2767  143.9057  154.9861 C.ar    1  UNL1        0.0577
     20 S         137.1842  142.9607  156.1473 S.2     1  UNL1       -0.0586
     21 C         139.5666  140.3314  162.1674 C.2     1  UNL1        0.3447
     22 O         138.5683  139.3696  162.7403 O.2     1  UNL1       -0.2450
     23 O         140.8673  140.5722  162.8746 O.3     1  UNL1       -0.4455
     24 C         140.0888  141.2774  165.2509 C.3     1  UNL1        0.0513
     25 C         140.9489  140.4255  164.3652 C.3     1  UNL1        0.2089
     26 C         139.7022  138.8668  159.5527 C.3     1  UNL1        0.1404
     27 N         140.5008  138.3176  158.4079 N.3     1  UNL1       -0.2628
     28 C         139.8020  137.6824  157.2425 C.3     1  UNL1        0.1049
     29 C         140.6007  137.1332  156.0977 C.3     1  UNL1        0.1595
     30 O         142.0981  137.2193  156.1183 O.3     1  UNL1       -0.3509
     31 C         142.7968  137.8545  157.2837 C.3     1  UNL1        0.1580
     32 C         141.9983  138.4037  158.4285 C.3     1  UNL1        0.0880
     33 C         142.6970  139.0389  159.5939 C.3     1  UNL1        0.0244
     34 C         143.4026  138.1823  160.6030 C.3     1  UNL1        0.0432
     35 C         142.7933  137.9604  161.9556 C.2     1  UNL1        0.0504
     36 O         141.4572  137.2892  162.0753 O.co2   1  UNL1       -0.5492
     37 O         143.5199  138.4098  163.1885 O.co2   1  UNL1       -0.5492
@<TRIPOS>UNITY_ATOM_ATTR
36 1
charge -1
@<TRIPOS>BOND
     1    24    25    1
     2    25    23    1
     3    23    21    1
     4    21    22    2
     5    21     1    1
     6     1     2    2
     7     2    26    1
     8    26    27    1
     9    27    28    1
    10    28    29    1
    11    29    30    1
    12    30    31    1
    13    31    32    1
    14    32    33    1
    15    33    34    1
    16    34    35    1
    17    35    36   ar
    18    35    37   ar
    19     2     3    1
    20     3     4    1
    21     4    16    1
    22    16    17   ar
    23    17    18   ar
    24    18    19   ar
    25    19    20   ar
    26     4     5    2
    27     5     6    1
    28     6     8    1
    29     8     9   ar
    30     9    10   ar
    31    10    11   ar
    32    11    12    1
    33    11    13   ar
    34    13    14   ar
    35    14    15    1
    36     6     1    1
    37    14     8   ar
    38    32    27    1
    39    20    16   ar
    40     3     7    1
@<TRIPOS>MOLECULE
*****
 37 40 0 0 0
SMALL
GASTEIGER

@<TRIPOS>ATOM
      1 C         140.5064  141.2152  161.0840 C.2     1  UNL1        0.1397
      2 C         140.7456  140.3926  159.8527 C.2     1  UNL1        0.1355
      3 N         139.8166  140.5092  158.6808 N.pl3   1  UNL1       -0.1998
      4 C         138.6485  141.4483  158.7402 C.2     1  UNL1        0.3442
      5 N         138.4093  142.2708  159.9715 N.2     1  UNL1       -0.0580
      6 C         139.3383  142.1542  161.1434 C.3     1  UNL1        0.2692
      7 H         139.9736  139.9694  157.8726 H       1  UNL1        0.2983
      8 C         139.0991  142.9768  162.3748 C.ar    1  UNL1        0.0371
      9 C         139.7780  144.3050  162.5330 C.ar    1  UNL1        0.0030
     10 C         139.5388  145.1276  163.7643 C.ar    1  UNL1        0.0295
     11 C         138.6208  144.6220  164.8375 C.ar    1  UNL1        0.1406
     12 F         138.3816  145.4445  166.0688 F       1  UNL1       -0.2042
     13 C         137.9420  143.2937  164.6793 C.ar    1  UNL1        0.0362
     14 C         138.1811  142.4712  163.4479 C.ar    1  UNL1        0.0372
     15 BR        137.5023  141.1429  163.2897 Br      1  UNL1       -0.0491
     16 C         137.7195  141.5649  157.5683 C.ar    1  UNL1        0.1931
     17 N         136.7230  140.5342  157.1272 N.ar    1  UNL1       -0.2297
     18 C         136.0115  141.0649  155.9179 C.ar    1  UNL1        0.1067
     19 C         136.5683  142.4236  155.6117 C.ar    1  UNL1        0.0577
     20 S         137.6239  142.7326  156.6316 S.2     1  UNL1       -0.0586
     21 C         141.4354  141.0986  162.2560 C.2     1  UNL1        0.3447
     22 O         142.6330  141.9963  162.3559 O.2     1  UNL1       -0.2450
     23 O         141.1669  140.0844  163.3279 O.3     1  UNL1       -0.4455
     24 C         141.4458  137.5617  163.8833 C.3     1  UNL1        0.0513
     25 C         142.0376  138.8686  163.4453 C.3     1  UNL1        0.2089
     26 C         141.9138  139.4535  159.7932 C.3     1  UNL1        0.1404
     27 N         142.7289  139.3489  158.5384 N.3     1  UNL1       -0.2628
     28 C         142.4878  138.2212  157.5792 C.3     1  UNL1        0.1049
     29 C         143.3030  138.1167  156.3244 C.3     1  UNL1        0.1595
     30 O         144.3592  139.1399  156.0288 O.3     1  UNL1       -0.3509
     31 C         144.6004  140.2676  156.9880 C.3     1  UNL1        0.1580
     32 C         143.7852  140.3722  158.2428 C.3     1  UNL1        0.0880
     33 C         144.0263  141.4999  159.2020 C.3     1  UNL1        0.0244
     34 C         143.8253  142.9184  158.7577 C.3     1  UNL1        0.0432
     35 C         142.4828  143.5694  158.9116 C.2     1  UNL1        0.0504
     36 O         141.3766  143.2431  157.9526 O.co2   1  UNL1       -0.5492
     37 O         142.2465  144.5469  160.0246 O.co2   1  UNL1       -0.5492
@<TRIPOS>UNITY_ATOM_ATTR
36 1
charge -1
@<TRIPOS>BOND
     1    24    25    1
     2    25    23    1
     3    23    21    1
     4    21    22    2
     5    21     1    1
     6     1     2    2
     7     2    26    1
     8    26    27    1
     9    27    28    1
    10    28    29    1
    11    29    30    1
    12    30    31    1
    13    31    32    1
    14    32    33    1
    15    33    34    1
    16    34    35    1
    17    35    36   ar
    18    35    37   ar
    19     2     3    1
    20     3     4    1
    21     4    16    1
    22    16    17   ar
    23    17    18   ar
    24    18    19   ar
    25    19    20   ar
    26     4     5    2
    27     5     6    1
    28     6     8    1
    29     8     9   ar
    30     9    10   ar
    31    10    11   ar
    32    11    12    1
    33    11    13   ar
    34    13    14   ar
    35    14    15    1
    36     6     1    1
    37    14     8   ar
    38    32    27    1
    39    20    16   ar
    40     3     7    1
