@<TRIPOS>MOLECULE
*****
 35 40 0 0 0
SMALL
GASTEIGER

@<TRIPOS>ATOM
      1 C         142.5034  142.8846  160.4791 C.3     1  UNL1        0.0730
      2 N         141.6655  143.6585  161.4534 N.3     1  UNL1       -0.2726
      3 C         141.5282  145.1513  161.5069 C.3     1  UNL1        0.0721
      4 C         140.5958  145.4909  162.6317 C.3     1  UNL1        0.0190
      5 C         140.1569  144.2081  163.2734 C.3     1  UNL1        0.0201
      6 C         139.2778  144.8437  164.3094 C.3     1  UNL1        0.0061
      7 C         139.4152  143.3510  164.2558 C.3     1  UNL1        0.0237
      8 C         140.8180  143.0756  162.5452 C.3     1  UNL1        0.0724
      9 C         139.0663  141.9943  164.7922 C.ar    1  UNL1       -0.0225
     10 C         138.2013  141.0696  163.9880 C.ar    1  UNL1       -0.0043
     11 C         137.8524  139.7129  164.5244 C.ar    1  UNL1        0.0035
     12 C         138.3684  139.2810  165.8650 C.ar    1  UNL1        0.0714
     13 C         139.2334  140.2057  166.6692 C.ar    1  UNL1        0.0035
     14 C         139.5823  141.5624  166.1328 C.ar    1  UNL1       -0.0043
     15 C         138.0195  137.9244  166.4014 C.3     1  UNL1        0.4186
     16 F         137.6706  136.5677  166.9378 F       1  UNL1       -0.1659
     17 F         137.1194  138.5586  167.4200 F       1  UNL1       -0.1659
     18 F         138.9196  137.2901  165.3828 F       1  UNL1       -0.1659
     19 C         142.0848  141.5069  160.0587 C.3     1  UNL1        0.0294
     20 C         143.1213  140.4907  159.6809 C.3     1  UNL1        0.0666
     21 S         143.7220  139.6055  160.7323 S.3     1  UNL1       -0.0756
     22 C         141.8719  139.2387  163.3954 C.3     1  UNL1        0.1337
     23 N         143.1696  139.9874  163.3196 N.ar    1  UNL1       -0.2918
     24 C         144.0200  140.1560  162.0955 C.ar    1  UNL1        0.1930
     25 N         145.2205  140.9716  162.4739 N.ar    1  UNL1       -0.1224
     26 N         145.1122  141.3071  163.9318 N.ar    1  UNL1       -0.1328
     27 C         143.8446  140.6988  164.4545 C.ar    1  UNL1        0.1434
     28 C         143.3405  140.7866  165.8646 C.3     1  UNL1        0.0636
     29 C         143.0025  139.5353  166.6195 C.3     1  UNL1        0.0372
     30 C         142.4984  139.6231  168.0296 C.3     1  UNL1        0.1156
     31 C         142.0497  140.1687  169.3528 C.3     1  UNL1        0.0321
     32 C         142.1490  141.6643  169.2952 C.3     1  UNL1        0.0321
     33 C         142.6591  142.0430  167.9363 C.3     1  UNL1        0.1156
     34 C         143.1745  142.1257  166.5198 C.3     1  UNL1        0.0372
     35 O         142.8751  140.7814  167.1541 O.3     1  UNL1       -0.3587
@<TRIPOS>BOND
     1    22    23    1
     2    23    24   ar
     3    24    21    1
     4    21    20    1
     5    20    19    1
     6    19     1    1
     7     1     2    1
     8     2     3    1
     9     3     4    1
    10     5     4    1
    11     5     6    1
    12     6     7    1
    13     7     9    1
    14     9    10   ar
    15    10    11   ar
    16    11    12   ar
    17    12    15    1
    18    15    16    1
    19    15    17    1
    20    15    18    1
    21    12    13   ar
    22    13    14   ar
    23     5     8    1
    24    24    25   ar
    25    25    26   ar
    26    26    27   ar
    27    27    28    1
    28    28    29    1
    29    29    30    1
    30    30    31    1
    31    31    32    1
    32    32    33    1
    33    33    34    1
    34    33    35    1
    35    27    23   ar
    36    34    28    1
    37     8     2    1
    38    35    30    1
    39     7     5    1
    40    14     9   ar
@<TRIPOS>MOLECULE
*****
 35 40 0 0 0
SMALL
GASTEIGER

@<TRIPOS>ATOM
      1 C         142.2782  145.2037  162.7329 C.3     1  UNL1        0.0730
      2 N         143.2002  144.0391  162.9424 N.3     1  UNL1       -0.2726
      3 C         144.3862  143.6898  162.0932 C.3     1  UNL1        0.0721
      4 C         145.0170  142.4543  162.6638 C.3     1  UNL1        0.0190
      5 C         144.2208  142.0401  163.8657 C.3     1  UNL1        0.0201
      6 C         145.0545  140.8386  164.1996 C.3     1  UNL1        0.0061
      7 C         143.8684  141.1880  165.0488 C.3     1  UNL1        0.0237
      8 C         143.0979  143.0196  164.0378 C.3     1  UNL1        0.0724
      9 C         142.9801  140.8978  166.2222 C.ar    1  UNL1       -0.0225
     10 C         142.7494  141.9495  167.2665 C.ar    1  UNL1       -0.0043
     11 C         141.8612  141.6592  168.4398 C.ar    1  UNL1        0.0035
     12 C         141.2037  140.3172  168.5688 C.ar    1  UNL1        0.0714
     13 C         141.4344  139.2654  167.5246 C.ar    1  UNL1        0.0035
     14 C         142.3227  139.5557  166.3512 C.ar    1  UNL1       -0.0043
     15 C         140.3155  140.0269  169.7422 C.3     1  UNL1        0.4186
     16 F         139.4272  139.7366  170.9155 F       1  UNL1       -0.1659
     17 F         141.3913  139.1732  170.3454 F       1  UNL1       -0.1659
     18 F         139.2396  140.8805  169.1390 F       1  UNL1       -0.1659
     19 C         141.0594  145.0501  161.8721 C.3     1  UNL1        0.0294
     20 C         141.1931  144.5454  160.4659 C.3     1  UNL1        0.0666
     21 S         140.6415  143.2004  160.0962 S.3     1  UNL1       -0.0756
     22 C         138.4258  142.2852  162.3104 C.3     1  UNL1        0.1337
     23 N         139.7522  141.6284  162.0667 N.ar    1  UNL1       -0.2918
     24 C         140.7706  142.0491  161.0489 C.ar    1  UNL1        0.1930
     25 N         141.9408  141.1163  161.1511 N.ar    1  UNL1       -0.1224
     26 N         141.6456  140.1191  162.2320 N.ar    1  UNL1       -0.1328
     27 C         140.2930  140.4356  162.7979 C.ar    1  UNL1        0.1434
     28 C         139.6023  139.6901  163.9013 C.3     1  UNL1        0.0636
     29 C         138.9038  140.4446  164.9934 C.3     1  UNL1        0.0372
     30 C         138.2132  139.6991  166.0968 C.3     1  UNL1        0.1156
     31 C         137.6824  138.5880  166.9533 C.3     1  UNL1        0.0321
     32 C         138.0904  137.2864  166.3292 C.3     1  UNL1        0.0321
     33 C         138.8732  137.5931  165.0870 C.3     1  UNL1        0.1156
     34 C         139.6103  138.1902  163.9125 C.3     1  UNL1        0.0372
     35 O         138.9491  139.0843  164.9433 O.3     1  UNL1       -0.3587
@<TRIPOS>BOND
     1    22    23    1
     2    23    24   ar
     3    24    21    1
     4    21    20    1
     5    20    19    1
     6    19     1    1
     7     1     2    1
     8     2     3    1
     9     3     4    1
    10     5     4    1
    11     5     6    1
    12     6     7    1
    13     7     9    1
    14     9    10   ar
    15    10    11   ar
    16    11    12   ar
    17    12    15    1
    18    15    16    1
    19    15    17    1
    20    15    18    1
    21    12    13   ar
    22    13    14   ar
    23     5     8    1
    24    24    25   ar
    25    25    26   ar
    26    26    27   ar
    27    27    28    1
    28    28    29    1
    29    29    30    1
    30    30    31    1
    31    31    32    1
    32    32    33    1
    33    33    34    1
    34    33    35    1
    35    27    23   ar
    36    34    28    1
    37     8     2    1
    38    35    30    1
    39     7     5    1
    40    14     9   ar
@<TRIPOS>MOLECULE
*****
 35 40 0 0 0
SMALL
GASTEIGER

@<TRIPOS>ATOM
      1 C         142.6233  137.9841  162.5097 C.3     1  UNL1        0.0730
      2 N         141.2854  138.1787  163.1595 N.3     1  UNL1       -0.2726
      3 C         139.9786  137.6300  162.6684 C.3     1  UNL1        0.0721
      4 C         138.9050  138.0684  163.6198 C.3     1  UNL1        0.0190
      5 C         139.5483  138.8880  164.6989 C.3     1  UNL1        0.0201
      6 C         138.2850  139.1672  165.4579 C.3     1  UNL1        0.0061
      7 C         139.5918  139.7159  165.9489 C.3     1  UNL1        0.0237
      8 C         141.0195  138.9562  164.4144 C.3     1  UNL1        0.0724
      9 C         140.3714  140.5107  166.9542 C.ar    1  UNL1       -0.0225
     10 C         141.2270  139.8075  167.9658 C.ar    1  UNL1       -0.0043
     11 C         142.0066  140.6023  168.9711 C.ar    1  UNL1        0.0035
     12 C         141.9306  142.1004  168.9647 C.ar    1  UNL1        0.0714
     13 C         141.0750  142.8036  167.9531 C.ar    1  UNL1        0.0035
     14 C         140.2954  142.0088  166.9479 C.ar    1  UNL1       -0.0043
     15 C         142.7101  142.8952  169.9699 C.3     1  UNL1        0.4186
     16 F         143.4897  143.6900  170.9752 F       1  UNL1       -0.1659
     17 F         143.8471  141.9234  169.8565 F       1  UNL1       -0.1659
     18 F         141.5731  143.8669  170.0834 F       1  UNL1       -0.1659
     19 C         142.7295  137.9248  161.0146 C.3     1  UNL1        0.0294
     20 C         143.8197  138.6763  160.3098 C.3     1  UNL1        0.0666
     21 S         143.6650  140.1434  160.0387 S.3     1  UNL1       -0.0756
     22 C         142.9686  141.5623  162.8938 C.3     1  UNL1        0.1337
     23 N         142.0629  141.4918  161.7001 N.ar    1  UNL1       -0.2918
     24 C         142.3830  140.8396  160.3877 C.ar    1  UNL1        0.1930
     25 N         141.1961  141.0058  159.4858 N.ar    1  UNL1       -0.1224
     26 N         140.1424  141.7607  160.2406 N.ar    1  UNL1       -0.1328
     27 C         140.6781  142.0611  161.6091 C.ar    1  UNL1        0.1434
     28 C         139.9559  142.8009  162.6960 C.3     1  UNL1        0.0636
     29 C         138.6276  142.3051  163.1859 C.3     1  UNL1        0.0372
     30 C         137.9055  143.0449  164.2727 C.3     1  UNL1        0.1156
     31 C         137.5637  144.0574  165.3254 C.3     1  UNL1        0.0321
     32 C         138.6804  145.0569  165.3871 C.3     1  UNL1        0.0321
     33 C         139.7124  144.6622  164.3726 C.3     1  UNL1        0.1156
     34 C         140.5619  144.0364  163.2928 C.3     1  UNL1        0.0372
     35 O         139.2334  143.4187  163.6838 O.3     1  UNL1       -0.3587
@<TRIPOS>BOND
     1    22    23    1
     2    23    24   ar
     3    24    21    1
     4    21    20    1
     5    20    19    1
     6    19     1    1
     7     1     2    1
     8     2     3    1
     9     3     4    1
    10     5     4    1
    11     5     6    1
    12     6     7    1
    13     7     9    1
    14     9    10   ar
    15    10    11   ar
    16    11    12   ar
    17    12    15    1
    18    15    16    1
    19    15    17    1
    20    15    18    1
    21    12    13   ar
    22    13    14   ar
    23     5     8    1
    24    24    25   ar
    25    25    26   ar
    26    26    27   ar
    27    27    28    1
    28    28    29    1
    29    29    30    1
    30    30    31    1
    31    31    32    1
    32    32    33    1
    33    33    34    1
    34    33    35    1
    35    27    23   ar
    36    34    28    1
    37     8     2    1
    38    35    30    1
    39     7     5    1
    40    14     9   ar
@<TRIPOS>MOLECULE
*****
 35 40 0 0 0
SMALL
GASTEIGER

@<TRIPOS>ATOM
      1 C         143.5879  143.5814  161.9572 C.3     1  UNL1        0.0730
      2 N         143.8308  142.2599  162.6242 N.3     1  UNL1       -0.2726
      3 C         144.6012  141.1095  162.0470 C.3     1  UNL1        0.0721
      4 C         144.5926  139.9955  163.0514 C.3     1  UNL1        0.0190
      5 C         143.8169  140.4573  164.2493 C.3     1  UNL1        0.0201
      6 C         143.9774  139.1914  165.0377 C.3     1  UNL1        0.0061
      7 C         143.2071  140.3418  165.6148 C.3     1  UNL1        0.0237
      8 C         143.3461  141.8569  163.9853 C.3     1  UNL1        0.0724
      9 C         142.4102  140.9393  166.7365 C.ar    1  UNL1       -0.0225
     10 C         142.9634  142.0944  167.5173 C.ar    1  UNL1       -0.0043
     11 C         142.1665  142.6918  168.6389 C.ar    1  UNL1        0.0035
     12 C         140.8164  142.1341  168.9797 C.ar    1  UNL1        0.0714
     13 C         140.2631  140.9790  168.1989 C.ar    1  UNL1        0.0035
     14 C         141.0600  140.3816  167.0773 C.ar    1  UNL1       -0.0043
     15 C         140.0195  142.7315  170.1013 C.3     1  UNL1        0.4186
     16 F         139.2226  143.3289  171.2230 F       1  UNL1       -0.1659
     17 F         139.0588  141.5817  170.0312 F       1  UNL1       -0.1659
     18 F         140.9802  143.8813  170.1715 F       1  UNL1       -0.1659
     19 C         142.5391  143.7023  160.8917 C.3     1  UNL1        0.0294
     20 C         141.5259  144.8062  160.9585 C.3     1  UNL1        0.0666
     21 S         140.0751  144.5081  160.7210 S.3     1  UNL1       -0.0756
     22 C         140.1525  143.1320  163.6790 C.3     1  UNL1        0.1337
     23 N         139.5522  142.5313  162.4425 N.ar    1  UNL1       -0.2918
     24 C         139.5166  143.1638  161.0829 C.ar    1  UNL1        0.1930
     25 N         138.8246  142.2161  160.1487 N.ar    1  UNL1       -0.1224
     26 N         138.4324  140.9978  160.9309 N.ar    1  UNL1       -0.1328
     27 C         138.8821  141.1926  162.3486 C.ar    1  UNL1        0.1434
     28 C         138.6946  140.2195  163.4747 C.3     1  UNL1        0.0636
     29 C         139.1629  138.8021  163.3270 C.3     1  UNL1        0.0372
     30 C         138.9754  137.8291  164.4531 C.3     1  UNL1        0.1156
     31 C         138.5966  137.2359  165.7777 C.3     1  UNL1        0.0321
     32 C         137.9477  138.3107  166.5984 C.3     1  UNL1        0.0321
     33 C         137.9254  139.5683  165.7810 C.3     1  UNL1        0.1156
     34 C         138.0389  140.6638  164.7485 C.3     1  UNL1        0.0372
     35 O         138.5606  139.2706  164.4551 O.3     1  UNL1       -0.3587
@<TRIPOS>BOND
     1    22    23    1
     2    23    24   ar
     3    24    21    1
     4    21    20    1
     5    20    19    1
     6    19     1    1
     7     1     2    1
     8     2     3    1
     9     3     4    1
    10     5     4    1
    11     5     6    1
    12     6     7    1
    13     7     9    1
    14     9    10   ar
    15    10    11   ar
    16    11    12   ar
    17    12    15    1
    18    15    16    1
    19    15    17    1
    20    15    18    1
    21    12    13   ar
    22    13    14   ar
    23     5     8    1
    24    24    25   ar
    25    25    26   ar
    26    26    27   ar
    27    27    28    1
    28    28    29    1
    29    29    30    1
    30    30    31    1
    31    31    32    1
    32    32    33    1
    33    33    34    1
    34    33    35    1
    35    27    23   ar
    36    34    28    1
    37     8     2    1
    38    35    30    1
    39     7     5    1
    40    14     9   ar
@<TRIPOS>MOLECULE
*****
 35 40 0 0 0
SMALL
GASTEIGER

@<TRIPOS>ATOM
      1 C         139.2869  143.3875  159.2634 C.3     1  UNL1        0.0730
      2 N         139.5557  144.0159  160.5987 N.3     1  UNL1       -0.2726
      3 C         139.9980  145.4296  160.8347 C.3     1  UNL1        0.0721
      4 C         140.1450  145.6284  162.3142 C.3     1  UNL1        0.0190
      5 C         139.7936  144.3375  162.9925 C.3     1  UNL1        0.0201
      6 C         140.0242  144.8275  164.3913 C.3     1  UNL1        0.0061
      7 C         139.5820  143.4138  164.1552 C.3     1  UNL1        0.0237
      8 C         139.4294  143.3409  161.9323 C.3     1  UNL1        0.0724
      9 C         139.2044  142.0643  164.6903 C.ar    1  UNL1       -0.0225
     10 C         138.3790  141.1306  163.8555 C.ar    1  UNL1       -0.0043
     11 C         138.0015  139.7811  164.3906 C.ar    1  UNL1        0.0035
     12 C         138.4494  139.3653  165.7605 C.ar    1  UNL1        0.0714
     13 C         139.2748  140.2990  166.5953 C.ar    1  UNL1        0.0035
     14 C         139.6523  141.6485  166.0602 C.ar    1  UNL1       -0.0043
     15 C         138.0718  138.0158  166.2956 C.3     1  UNL1        0.4186
     16 F         137.6943  136.6663  166.8307 F       1  UNL1       -0.1659
     17 F         137.1887  138.6681  167.3176 F       1  UNL1       -0.1659
     18 F         138.9549  137.3635  165.2736 F       1  UNL1       -0.1659
     19 C         140.1719  143.7030  158.0942 C.3     1  UNL1        0.0294
     20 C         141.3772  142.8549  157.8155 C.3     1  UNL1        0.0666
     21 S         142.6894  143.1797  158.4654 S.3     1  UNL1       -0.0756
     22 C         142.5886  140.2950  159.9878 C.3     1  UNL1        0.1337
     23 N         142.8282  141.6263  160.6362 N.ar    1  UNL1       -0.2918
     24 C         142.8745  142.9522  159.9364 C.ar    1  UNL1        0.1930
     25 N         143.1384  144.0107  160.9659 N.ar    1  UNL1       -0.1224
     26 N         143.2551  143.3390  162.3020 N.ar    1  UNL1       -0.1328
     27 C         143.0634  141.8653  162.0982 C.ar    1  UNL1        0.1434
     28 C         143.1004  140.8150  163.1686 C.3     1  UNL1        0.0636
     29 C         141.8855  139.9784  163.4408 C.3     1  UNL1        0.0372
     30 C         141.9226  138.9282  164.5111 C.3     1  UNL1        0.1156
     31 C         142.3979  138.0404  165.6229 C.3     1  UNL1        0.0321
     32 C         143.8221  138.4000  165.9264 C.3     1  UNL1        0.0321
     33 C         144.2271  139.5100  165.0023 C.3     1  UNL1        0.1156
     34 C         144.3524  140.6013  163.9667 C.3     1  UNL1        0.0372
     35 O         143.0530  139.8364  164.1276 O.3     1  UNL1       -0.3587
@<TRIPOS>BOND
     1    22    23    1
     2    23    24   ar
     3    24    21    1
     4    21    20    1
     5    20    19    1
     6    19     1    1
     7     1     2    1
     8     2     3    1
     9     3     4    1
    10     5     4    1
    11     5     6    1
    12     6     7    1
    13     7     9    1
    14     9    10   ar
    15    10    11   ar
    16    11    12   ar
    17    12    15    1
    18    15    16    1
    19    15    17    1
    20    15    18    1
    21    12    13   ar
    22    13    14   ar
    23     5     8    1
    24    24    25   ar
    25    25    26   ar
    26    26    27   ar
    27    27    28    1
    28    28    29    1
    29    29    30    1
    30    30    31    1
    31    31    32    1
    32    32    33    1
    33    33    34    1
    34    33    35    1
    35    27    23   ar
    36    34    28    1
    37     8     2    1
    38    35    30    1
    39     7     5    1
    40    14     9   ar
@<TRIPOS>MOLECULE
*****
 35 40 0 0 0
SMALL
GASTEIGER

@<TRIPOS>ATOM
      1 C         141.0905  143.3307  159.0066 C.3     1  UNL1        0.0730
      2 N         140.5843  144.0578  160.2170 N.3     1  UNL1       -0.2726
      3 C         140.5106  145.5466  160.3844 C.3     1  UNL1        0.0721
      4 C         139.9437  145.8328  161.7433 C.3     1  UNL1        0.0190
      5 C         139.6670  144.5208  162.4158 C.3     1  UNL1        0.0201
      6 C         139.1347  145.1069  163.6899 C.3     1  UNL1        0.0061
      7 C         139.2084  143.6181  163.5225 C.3     1  UNL1        0.0237
      8 C         140.0629  143.4238  161.4725 C.3     1  UNL1        0.0724
      9 C         138.9862  142.2373  164.0648 C.ar    1  UNL1       -0.0225
     10 C         139.4424  141.8939  165.4519 C.ar    1  UNL1       -0.0043
     11 C         139.2202  140.5132  165.9942 C.ar    1  UNL1        0.0035
     12 C         138.5417  139.4758  165.1494 C.ar    1  UNL1        0.0714
     13 C         138.0855  139.8192  163.7623 C.ar    1  UNL1        0.0035
     14 C         138.3077  141.2000  163.2201 C.ar    1  UNL1       -0.0043
     15 C         138.3195  138.0951  165.6917 C.3     1  UNL1        0.4186
     16 F         138.0972  136.7143  166.2340 F       1  UNL1       -0.1659
     17 F         137.6581  138.6781  166.9052 F       1  UNL1       -0.1659
     18 F         138.9809  137.5120  164.4782 F       1  UNL1       -0.1659
     19 C         142.1183  143.9716  158.1219 C.3     1  UNL1        0.0294
     20 C         143.1164  143.1211  157.3937 C.3     1  UNL1        0.0666
     21 S         144.2928  142.5499  158.1284 S.3     1  UNL1       -0.0756
     22 C         143.7533  142.6217  161.3461 C.3     1  UNL1        0.1337
     23 N         143.8654  141.3894  160.4981 N.ar    1  UNL1       -0.2918
     24 C         144.1133  141.3564  159.0191 C.ar    1  UNL1        0.1930
     25 N         144.1503  139.9204  158.5873 N.ar    1  UNL1       -0.1224
     26 N         143.9252  139.0659  159.7993 N.ar    1  UNL1       -0.1328
     27 C         143.7491  139.9738  160.9803 C.ar    1  UNL1        0.1434
     28 C         143.5004  139.5419  162.3952 C.3     1  UNL1        0.0636
     29 C         144.6181  139.5691  163.3951 C.3     1  UNL1        0.0372
     30 C         144.3693  139.1373  164.8099 C.3     1  UNL1        0.1156
     31 C         143.6896  138.6398  166.0511 C.3     1  UNL1        0.0321
     32 C         142.2554  138.3591  165.7132 C.3     1  UNL1        0.0321
     33 C         142.0487  138.6830  164.2632 C.3     1  UNL1        0.1156
     34 C         142.1339  139.0829  162.8100 C.3     1  UNL1        0.0372
     35 O         143.3552  139.1640  163.7050 O.3     1  UNL1       -0.3587
@<TRIPOS>BOND
     1    22    23    1
     2    23    24   ar
     3    24    21    1
     4    21    20    1
     5    20    19    1
     6    19     1    1
     7     1     2    1
     8     2     3    1
     9     3     4    1
    10     5     4    1
    11     5     6    1
    12     6     7    1
    13     7     9    1
    14     9    10   ar
    15    10    11   ar
    16    11    12   ar
    17    12    15    1
    18    15    16    1
    19    15    17    1
    20    15    18    1
    21    12    13   ar
    22    13    14   ar
    23     5     8    1
    24    24    25   ar
    25    25    26   ar
    26    26    27   ar
    27    27    28    1
    28    28    29    1
    29    29    30    1
    30    30    31    1
    31    31    32    1
    32    32    33    1
    33    33    34    1
    34    33    35    1
    35    27    23   ar
    36    34    28    1
    37     8     2    1
    38    35    30    1
    39     7     5    1
    40    14     9   ar
@<TRIPOS>MOLECULE
*****
 35 40 0 0 0
SMALL
GASTEIGER

@<TRIPOS>ATOM
      1 C         142.7326  143.5288  161.6181 C.3     1  UNL1        0.0730
      2 N         141.6222  143.9561  162.5315 N.3     1  UNL1       -0.2726
      3 C         140.6229  145.0407  162.2571 C.3     1  UNL1        0.0721
      4 C         139.6992  145.1288  163.4357 C.3     1  UNL1        0.0190
      5 C         140.1276  144.0988  164.4385 C.3     1  UNL1        0.0201
      6 C         139.0680  144.4161  165.4516 C.3     1  UNL1        0.0061
      7 C         140.0672  143.3317  165.7260 C.3     1  UNL1        0.0237
      8 C         141.3160  143.3740  163.8796 C.3     1  UNL1        0.0724
      9 C         140.6093  142.2625  166.6278 C.ar    1  UNL1       -0.0225
     10 C         140.4023  142.3560  168.1105 C.ar    1  UNL1       -0.0043
     11 C         140.9443  141.2869  169.0123 C.ar    1  UNL1        0.0035
     12 C         141.6935  140.1244  168.4314 C.ar    1  UNL1        0.0714
     13 C         141.9005  140.0310  166.9487 C.ar    1  UNL1        0.0035
     14 C         141.3584  141.1000  166.0469 C.ar    1  UNL1       -0.0043
     15 C         142.2355  139.0553  169.3331 C.3     1  UNL1        0.4186
     16 F         142.7776  137.9863  170.2349 F       1  UNL1       -0.1659
     17 F         143.2543  138.6945  168.2930 F       1  UNL1       -0.1659
     18 F         141.2168  139.4162  170.3733 F       1  UNL1       -0.1659
     19 C         142.4309  143.1416  160.2007 C.3     1  UNL1        0.0294
     20 C         143.1760  142.0098  159.5575 C.3     1  UNL1        0.0666
     21 S         142.4752  140.7134  159.2780 S.3     1  UNL1       -0.0756
     22 C         142.3486  139.9416  162.4463 C.3     1  UNL1        0.1337
     23 N         141.1827  139.9922  161.5038 N.ar    1  UNL1       -0.2918
     24 C         141.2409  140.3469  160.0475 C.ar    1  UNL1        0.1930
     25 N         139.8481  140.2708  159.4959 N.ar    1  UNL1       -0.1224
     26 N         138.9291  139.8690  160.6112 N.ar    1  UNL1       -0.1328
     27 C         139.7539  139.6968  161.8522 C.ar    1  UNL1        0.1434
     28 C         139.2402  139.2991  163.2043 C.3     1  UNL1        0.0636
     29 C         139.3642  137.8771  163.6652 C.3     1  UNL1        0.0372
     30 C         138.8505  137.4794  165.0172 C.3     1  UNL1        0.1156
     31 C         138.2260  137.5376  166.3798 C.3     1  UNL1        0.0321
     32 C         137.7862  138.9500  166.6281 C.3     1  UNL1        0.0321
     33 C         138.1389  139.7647  165.4190 C.3     1  UNL1        0.1156
     34 C         138.6024  140.3234  164.0954 C.3     1  UNL1        0.0372
     35 O         138.7966  138.8558  164.4234 O.3     1  UNL1       -0.3587
@<TRIPOS>BOND
     1    22    23    1
     2    23    24   ar
     3    24    21    1
     4    21    20    1
     5    20    19    1
     6    19     1    1
     7     1     2    1
     8     2     3    1
     9     3     4    1
    10     5     4    1
    11     5     6    1
    12     6     7    1
    13     7     9    1
    14     9    10   ar
    15    10    11   ar
    16    11    12   ar
    17    12    15    1
    18    15    16    1
    19    15    17    1
    20    15    18    1
    21    12    13   ar
    22    13    14   ar
    23     5     8    1
    24    24    25   ar
    25    25    26   ar
    26    26    27   ar
    27    27    28    1
    28    28    29    1
    29    29    30    1
    30    30    31    1
    31    31    32    1
    32    32    33    1
    33    33    34    1
    34    33    35    1
    35    27    23   ar
    36    34    28    1
    37     8     2    1
    38    35    30    1
    39     7     5    1
    40    14     9   ar
@<TRIPOS>MOLECULE
*****
 35 40 0 0 0
SMALL
GASTEIGER

@<TRIPOS>ATOM
      1 C         143.0798  142.7992  159.5941 C.3     1  UNL1        0.0730
      2 N         143.2930  141.4505  160.2150 N.3     1  UNL1       -0.2726
      3 C         143.6534  140.1908  159.4848 C.3     1  UNL1        0.0721
      4 C         143.7663  139.0864  160.4936 C.3     1  UNL1        0.0190
      5 C         143.4758  139.6636  161.8473 C.3     1  UNL1        0.0201
      6 C         143.6574  138.3827  162.6063 C.3     1  UNL1        0.0061
      7 C         143.2971  139.6424  163.3364 C.3     1  UNL1        0.0237
      8 C         143.1833  141.1247  161.6751 C.3     1  UNL1        0.0724
      9 C         142.9858  140.3574  164.6178 C.ar    1  UNL1       -0.0225
     10 C         143.7187  141.6178  164.9705 C.ar    1  UNL1       -0.0043
     11 C         143.4074  142.3328  166.2518 C.ar    1  UNL1        0.0035
     12 C         142.3633  141.7874  167.1805 C.ar    1  UNL1        0.0714
     13 C         141.6305  140.5270  166.8278 C.ar    1  UNL1        0.0035
     14 C         141.9417  139.8120  165.5465 C.ar    1  UNL1       -0.0043
     15 C         142.0521  142.5024  168.4619 C.3     1  UNL1        0.4186
     16 F         141.7408  143.2173  169.7432 F       1  UNL1       -0.1659
     17 F         143.5098  142.5032  168.8155 F       1  UNL1       -0.1659
     18 F         140.5944  142.5015  168.1083 F       1  UNL1       -0.1659
     19 C         142.6037  143.9458  160.4359 C.3     1  UNL1        0.0294
     20 C         141.4557  144.7917  159.9708 C.3     1  UNL1        0.0666
     21 S         140.1906  144.8467  160.7748 S.3     1  UNL1       -0.0756
     22 C         140.6860  143.0859  163.4774 C.3     1  UNL1        0.1337
     23 N         139.7079  142.7686  162.3852 N.ar    1  UNL1       -0.2918
     24 C         139.4802  143.5779  161.1430 C.ar    1  UNL1        0.1930
     25 N         138.4174  142.8958  160.3337 N.ar    1  UNL1       -0.1224
     26 N         137.9882  141.6649  161.0756 N.ar    1  UNL1       -0.1328
     27 C         138.7858  141.5862  162.3436 C.ar    1  UNL1        0.1434
     28 C         138.6798  140.5135  163.3868 C.3     1  UNL1        0.0636
     29 C         138.2056  140.8550  164.7683 C.3     1  UNL1        0.0372
     30 C         138.0997  139.7823  165.8114 C.3     1  UNL1        0.1156
     31 C         138.1493  138.4490  166.4967 C.3     1  UNL1        0.0321
     32 C         138.6358  137.4353  165.5037 C.3     1  UNL1        0.0321
     33 C         138.8868  138.1423  164.2048 C.3     1  UNL1        0.1156
     34 C         139.0482  139.0993  163.0485 C.3     1  UNL1        0.0372
     35 O         138.5555  139.5928  164.3949 O.3     1  UNL1       -0.3587
@<TRIPOS>BOND
     1    22    23    1
     2    23    24   ar
     3    24    21    1
     4    21    20    1
     5    20    19    1
     6    19     1    1
     7     1     2    1
     8     2     3    1
     9     3     4    1
    10     5     4    1
    11     5     6    1
    12     6     7    1
    13     7     9    1
    14     9    10   ar
    15    10    11   ar
    16    11    12   ar
    17    12    15    1
    18    15    16    1
    19    15    17    1
    20    15    18    1
    21    12    13   ar
    22    13    14   ar
    23     5     8    1
    24    24    25   ar
    25    25    26   ar
    26    26    27   ar
    27    27    28    1
    28    28    29    1
    29    29    30    1
    30    30    31    1
    31    31    32    1
    32    32    33    1
    33    33    34    1
    34    33    35    1
    35    27    23   ar
    36    34    28    1
    37     8     2    1
    38    35    30    1
    39     7     5    1
    40    14     9   ar
@<TRIPOS>MOLECULE
*****
 35 40 0 0 0
SMALL
GASTEIGER

@<TRIPOS>ATOM
      1 C         143.8751  139.1088  162.0566 C.3     1  UNL1        0.0730
      2 N         144.2239  140.3445  162.8323 N.3     1  UNL1       -0.2726
      3 C         145.2667  141.3555  162.4577 C.3     1  UNL1        0.0721
      4 C         145.2784  142.4219  163.5125 C.3     1  UNL1        0.0190
      5 C         144.2428  142.0699  164.5390 C.3     1  UNL1        0.0201
      6 C         144.4814  143.2619  165.4177 C.3     1  UNL1        0.0061
      7 C         143.4386  142.2509  165.7921 C.3     1  UNL1        0.0237
      8 C         143.5910  140.7860  164.1186 C.3     1  UNL1        0.0724
      9 C         142.3722  141.7717  166.7320 C.ar    1  UNL1       -0.0225
     10 C         142.6096  140.5567  167.5789 C.ar    1  UNL1       -0.0043
     11 C         141.5432  140.0775  168.5187 C.ar    1  UNL1        0.0035
     12 C         140.2394  140.8134  168.6115 C.ar    1  UNL1        0.0714
     13 C         140.0020  142.0285  167.7646 C.ar    1  UNL1        0.0035
     14 C         141.0684  142.5076  166.8248 C.ar    1  UNL1       -0.0043
     15 C         139.1730  140.3343  169.5513 C.3     1  UNL1        0.4186
     16 F         138.1066  139.8551  170.4911 F       1  UNL1       -0.1659
     17 F         138.5296  139.5707  168.4319 F       1  UNL1       -0.1659
     18 F         139.8164  141.0978  170.6707 F       1  UNL1       -0.1659
     19 C         144.0173  139.0954  160.5634 C.3     1  UNL1        0.0294
     20 C         143.0824  138.2718  159.7283 C.3     1  UNL1        0.0666
     21 S         141.6511  138.6914  159.5698 S.3     1  UNL1       -0.0756
     22 C         140.3452  139.5145  162.4450 C.3     1  UNL1        0.1337
     23 N         140.6230  140.4471  161.3034 N.ar    1  UNL1       -0.2918
     24 C         141.2233  140.0688  159.9818 C.ar    1  UNL1        0.1930
     25 N         141.3206  141.3096  159.1448 N.ar    1  UNL1       -0.1224
     26 N         140.7805  142.4549  159.9489 N.ar    1  UNL1       -0.1328
     27 C         140.3494  141.9218  161.2831 C.ar    1  UNL1        0.1434
     28 C         139.7498  142.7228  162.4007 C.3     1  UNL1        0.0636
     29 C         138.2982  142.5631  162.7431 C.3     1  UNL1        0.0372
     30 C         137.6987  143.3641  163.8607 C.3     1  UNL1        0.1156
     31 C         137.5395  144.3258  165.0008 C.3     1  UNL1        0.0321
     32 C         138.8696  144.9727  165.2506 C.3     1  UNL1        0.0321
     33 C         139.8508  144.4108  164.2649 C.3     1  UNL1        0.1156
     34 C         140.6019  143.6836  163.1759 C.3     1  UNL1        0.0372
     35 O         139.1271  143.4166  163.4059 O.3     1  UNL1       -0.3587
@<TRIPOS>BOND
     1    22    23    1
     2    23    24   ar
     3    24    21    1
     4    21    20    1
     5    20    19    1
     6    19     1    1
     7     1     2    1
     8     2     3    1
     9     3     4    1
    10     5     4    1
    11     5     6    1
    12     6     7    1
    13     7     9    1
    14     9    10   ar
    15    10    11   ar
    16    11    12   ar
    17    12    15    1
    18    15    16    1
    19    15    17    1
    20    15    18    1
    21    12    13   ar
    22    13    14   ar
    23     5     8    1
    24    24    25   ar
    25    25    26   ar
    26    26    27   ar
    27    27    28    1
    28    28    29    1
    29    29    30    1
    30    30    31    1
    31    31    32    1
    32    32    33    1
    33    33    34    1
    34    33    35    1
    35    27    23   ar
    36    34    28    1
    37     8     2    1
    38    35    30    1
    39     7     5    1
    40    14     9   ar
