@<TRIPOS>MOLECULE
*****
 19 20 0 0 0
SMALL
GASTEIGER

@<TRIPOS>ATOM
      1 C         140.5583  140.5153  167.2746 C.ar    1  UNL1        0.0511
      2 C         141.9592  140.1156  166.9173 C.ar    1  UNL1        0.0163
      3 C         142.8466  139.4873  167.9507 C.ar    1  UNL1        0.0253
      4 C         142.3330  139.2587  169.3413 C.ar    1  UNL1        0.1365
      5 C         140.9321  139.6583  169.6986 C.ar    1  UNL1        0.1541
      6 O         140.4185  139.4297  171.0893 O.3     1  UNL1       -0.5039
      7 C         140.0447  140.2866  168.6652 C.ar    1  UNL1        0.0527
      8 H         140.9727  139.0372  171.7348 H       1  UNL1        0.2923
      9 C         139.9369  142.5446  165.7761 C.3     1  UNL1        0.1122
     10 N         139.6710  141.1436  166.2412 N.pl3   1  UNL1       -0.3040
     11 C         138.5177  140.3709  165.6731 C.3     1  UNL1        0.1122
     12 N         143.2203  138.6303  170.3747 N.2     1  UNL1       -0.1435
     13 N         143.6904  137.2167  170.2002 N.2     1  UNL1       -0.1284
     14 C         144.5777  136.5883  171.2336 C.ar    1  UNL1        0.1838
     15 C         144.4385  135.1297  171.5549 C.ar    1  UNL1        0.0406
     16 C         145.3259  134.5014  172.5882 C.ar    1  UNL1        0.0048
     17 C         146.3524  135.3317  173.3003 C.ar    1  UNL1        0.0208
     18 C         146.4915  136.7902  172.9790 C.ar    1  UNL1        0.1006
     19 N         145.6042  137.4185  171.9456 N.ar    1  UNL1       -0.2236
@<TRIPOS>BOND
     1     9    10    1
     2    10    11    1
     3    10     1    1
     4     1     2   ar
     5     2     3   ar
     6     3     4   ar
     7     4    12    1
     8    12    13    2
     9    13    14    1
    10    14    15   ar
    11    15    16   ar
    12    16    17   ar
    13    17    18   ar
    14    18    19   ar
    15     4     5   ar
    16     5     6    1
    17     5     7   ar
    18     7     1   ar
    19    19    14   ar
    20     6     8    1
@<TRIPOS>MOLECULE
*****
 19 20 0 0 0
SMALL
GASTEIGER

@<TRIPOS>ATOM
      1 C         140.8317  141.7822  167.6047 C.ar    1  UNL1        0.0511
      2 C         139.9304  140.6423  167.2330 C.ar    1  UNL1        0.0163
      3 C         139.1888  139.8936  168.3005 C.ar    1  UNL1        0.0253
      4 C         139.3486  140.2847  169.7397 C.ar    1  UNL1        0.1365
      5 C         140.2499  141.4246  170.1115 C.ar    1  UNL1        0.1541
      6 O         140.4098  141.8158  171.5508 O.3     1  UNL1       -0.5039
      7 C         140.9915  142.1733  169.0440 C.ar    1  UNL1        0.0527
      8 H         139.9466  141.3481  172.2176 H       1  UNL1        0.2923
      9 C         143.0727  142.5045  166.5065 C.3     1  UNL1        0.1122
     10 N         141.5733  142.5309  166.5373 N.pl3   1  UNL1       -0.3040
     11 C         140.8154  143.3060  165.5006 C.3     1  UNL1        0.1122
     12 N         138.6071  139.5360  170.8072 N.2     1  UNL1       -0.1435
     13 N         137.2867  138.8963  170.4952 N.2     1  UNL1       -0.1284
     14 C         136.5452  138.1475  171.5627 C.ar    1  UNL1        0.1838
     15 C         135.2683  138.7038  172.1197 C.ar    1  UNL1        0.0406
     16 C         134.5267  137.9551  173.1872 C.ar    1  UNL1        0.0048
     17 C         135.0621  136.6501  173.6976 C.ar    1  UNL1        0.0208
     18 C         136.3389  136.0939  173.1406 C.ar    1  UNL1        0.1006
     19 N         137.0804  136.8426  172.0731 N.ar    1  UNL1       -0.2236
@<TRIPOS>BOND
     1     9    10    1
     2    10    11    1
     3    10     1    1
     4     1     2   ar
     5     2     3   ar
     6     3     4   ar
     7     4    12    1
     8    12    13    2
     9    13    14    1
    10    14    15   ar
    11    15    16   ar
    12    16    17   ar
    13    17    18   ar
    14    18    19   ar
    15     4     5   ar
    16     5     6    1
    17     5     7   ar
    18     7     1   ar
    19    19    14   ar
    20     6     8    1
@<TRIPOS>MOLECULE
*****
 19 20 0 0 0
SMALL
GASTEIGER

@<TRIPOS>ATOM
      1 C         141.0839  140.0992  166.5365 C.ar    1  UNL1        0.0511
      2 C         140.6496  140.3660  167.9473 C.ar    1  UNL1        0.0163
      3 C         141.4227  139.7830  169.0929 C.ar    1  UNL1        0.0253
      4 C         142.6300  138.9333  168.8278 C.ar    1  UNL1        0.1365
      5 C         143.0643  138.6666  167.4171 C.ar    1  UNL1        0.1541
      6 O         144.2717  137.8168  167.1519 O.3     1  UNL1       -0.5039
      7 C         142.2912  139.2495  166.2714 C.ar    1  UNL1        0.0527
      8 H         144.7546  137.4527  167.8675 H       1  UNL1        0.2923
      9 C         140.1158  142.1664  165.2957 C.3     1  UNL1        0.1122
     10 N         140.3108  140.6822  165.3909 N.pl3   1  UNL1       -0.3040
     11 C         139.7327  139.7810  164.3404 C.3     1  UNL1        0.1122
     12 N         143.4031  138.3503  169.9734 N.2     1  UNL1       -0.1435
     13 N         144.0162  136.9871  169.8480 N.2     1  UNL1       -0.1284
     14 C         144.7893  136.4042  170.9937 C.ar    1  UNL1        0.1838
     15 C         144.0812  135.6030  172.0458 C.ar    1  UNL1        0.0406
     16 C         144.8543  135.0200  173.1914 C.ar    1  UNL1        0.0048
     17 C         146.3355  135.2382  173.2849 C.ar    1  UNL1        0.0208
     18 C         147.0435  136.0394  172.2329 C.ar    1  UNL1        0.1006
     19 N         146.2704  136.6223  171.0872 N.ar    1  UNL1       -0.2236
@<TRIPOS>BOND
     1     9    10    1
     2    10    11    1
     3    10     1    1
     4     1     2   ar
     5     2     3   ar
     6     3     4   ar
     7     4    12    1
     8    12    13    2
     9    13    14    1
    10    14    15   ar
    11    15    16   ar
    12    16    17   ar
    13    17    18   ar
    14    18    19   ar
    15     4     5   ar
    16     5     6    1
    17     5     7   ar
    18     7     1   ar
    19    19    14   ar
    20     6     8    1
@<TRIPOS>MOLECULE
*****
 19 20 0 0 0
SMALL
GASTEIGER

@<TRIPOS>ATOM
      1 C         141.4499  140.7855  168.1213 C.ar    1  UNL1        0.0511
      2 C         142.5941  141.5469  167.5205 C.ar    1  UNL1        0.0163
      3 C         143.3899  142.4961  168.3665 C.ar    1  UNL1        0.0253
      4 C         143.0413  142.6840  169.8133 C.ar    1  UNL1        0.1365
      5 C         141.8971  141.9227  170.4140 C.ar    1  UNL1        0.1541
      6 O         141.5485  142.1106  171.8609 O.3     1  UNL1       -0.5039
      7 C         141.1013  140.9735  169.5680 C.ar    1  UNL1        0.0527
      8 H         142.0455  142.7035  172.3894 H       1  UNL1        0.2923
      9 C         141.3125  139.1125  166.1384 C.3     1  UNL1        0.1122
     10 N         140.6541  139.8363  167.2753 N.pl3   1  UNL1       -0.3040
     11 C         139.2000  139.6108  167.5661 C.3     1  UNL1        0.1122
     12 N         143.8371  143.6333  170.6593 N.2     1  UNL1       -0.1435
     13 N         145.3153  143.7702  170.4451 N.2     1  UNL1       -0.1284
     14 C         146.1111  144.7194  171.2911 C.ar    1  UNL1        0.1838
     15 C         147.3706  144.2532  171.9592 C.ar    1  UNL1        0.0406
     16 C         148.1663  145.2025  172.8052 C.ar    1  UNL1        0.0048
     17 C         147.7025  146.6179  172.9831 C.ar    1  UNL1        0.0208
     18 C         146.4431  147.0840  172.3149 C.ar    1  UNL1        0.1006
     19 N         145.6474  146.1348  171.4689 N.ar    1  UNL1       -0.2236
@<TRIPOS>BOND
     1     9    10    1
     2    10    11    1
     3    10     1    1
     4     1     2   ar
     5     2     3   ar
     6     3     4   ar
     7     4    12    1
     8    12    13    2
     9    13    14    1
    10    14    15   ar
    11    15    16   ar
    12    16    17   ar
    13    17    18   ar
    14    18    19   ar
    15     4     5   ar
    16     5     6    1
    17     5     7   ar
    18     7     1   ar
    19    19    14   ar
    20     6     8    1
@<TRIPOS>MOLECULE
*****
 19 20 0 0 0
SMALL
GASTEIGER

@<TRIPOS>ATOM
      1 C         143.6884  142.9032  160.4908 C.ar    1  UNL1        0.0511
      2 C         142.4574  143.1241  161.3189 C.ar    1  UNL1        0.0163
      3 C         142.5048  142.9155  162.8036 C.ar    1  UNL1        0.0253
      4 C         143.7832  142.4862  163.4602 C.ar    1  UNL1        0.1365
      5 C         145.0143  142.2654  162.6321 C.ar    1  UNL1        0.1541
      6 O         146.2928  141.8360  163.2887 O.3     1  UNL1       -0.5039
      7 C         144.9668  142.4739  161.1474 C.ar    1  UNL1        0.0527
      8 H         146.3225  141.7057  164.2161 H       1  UNL1        0.2923
      9 C         144.7169  142.5369  158.1333 C.3     1  UNL1        0.1122
     10 N         143.6409  143.1118  159.0061 N.pl3   1  UNL1       -0.3040
     11 C         142.5176  143.8951  158.3943 C.3     1  UNL1        0.1122
     12 N         143.8307  142.2777  164.9449 N.2     1  UNL1       -0.1435
     13 N         142.8024  141.4148  165.6143 N.2     1  UNL1       -0.1284
     14 C         142.8498  141.2063  167.0989 C.ar    1  UNL1        0.1838
     15 C         143.2999  142.3191  167.9986 C.ar    1  UNL1        0.0406
     16 C         143.3473  142.1105  169.4833 C.ar    1  UNL1        0.0048
     17 C         142.9447  140.7892  170.0683 C.ar    1  UNL1        0.0208
     18 C         142.4947  139.6765  169.1686 C.ar    1  UNL1        0.1006
     19 N         142.4473  139.8851  167.6840 N.ar    1  UNL1       -0.2236
@<TRIPOS>BOND
     1     9    10    1
     2    10    11    1
     3    10     1    1
     4     1     2   ar
     5     2     3   ar
     6     3     4   ar
     7     4    12    1
     8    12    13    2
     9    13    14    1
    10    14    15   ar
    11    15    16   ar
    12    16    17   ar
    13    17    18   ar
    14    18    19   ar
    15     4     5   ar
    16     5     6    1
    17     5     7   ar
    18     7     1   ar
    19    19    14   ar
    20     6     8    1
@<TRIPOS>MOLECULE
*****
 19 20 0 0 0
SMALL
GASTEIGER

@<TRIPOS>ATOM
      1 C         138.6222  139.1782  164.1556 C.ar    1  UNL1        0.0511
      2 C         138.6569  138.0234  163.1989 C.ar    1  UNL1        0.0163
      3 C         138.2829  138.2291  161.7610 C.ar    1  UNL1        0.0253
      4 C         137.8740  139.5896  161.2796 C.ar    1  UNL1        0.1365
      5 C         137.8393  140.7445  162.2362 C.ar    1  UNL1        0.1541
      6 O         137.4305  142.1051  161.7549 O.3     1  UNL1       -0.5039
      7 C         138.2134  140.5387  163.6742 C.ar    1  UNL1        0.0527
      8 H         137.1968  142.2336  160.8566 H       1  UNL1        0.2923
      9 C         140.4181  139.1601  166.0328 C.3     1  UNL1        0.1122
     10 N         138.9963  138.9725  165.5935 N.pl3   1  UNL1       -0.3040
     11 C         137.9485  138.5791  166.5922 C.3     1  UNL1        0.1122
     12 N         137.5000  139.7954  159.8417 N.2     1  UNL1       -0.1435
     13 N         138.0902  140.9376  159.0692 N.2     1  UNL1       -0.1284
     14 C         137.7161  141.1433  157.6312 C.ar    1  UNL1        0.1838
     15 C         137.4261  142.5241  157.1218 C.ar    1  UNL1        0.0406
     16 C         137.0520  142.7298  155.6839 C.ar    1  UNL1        0.0048
     17 C         136.9680  141.5548  154.7553 C.ar    1  UNL1        0.0208
     18 C         137.2581  140.1741  155.2646 C.ar    1  UNL1        0.1006
     19 N         137.6322  139.9684  156.7026 N.ar    1  UNL1       -0.2236
@<TRIPOS>BOND
     1     9    10    1
     2    10    11    1
     3    10     1    1
     4     1     2   ar
     5     2     3   ar
     6     3     4   ar
     7     4    12    1
     8    12    13    2
     9    13    14    1
    10    14    15   ar
    11    15    16   ar
    12    16    17   ar
    13    17    18   ar
    14    18    19   ar
    15     4     5   ar
    16     5     6    1
    17     5     7   ar
    18     7     1   ar
    19    19    14   ar
    20     6     8    1
@<TRIPOS>MOLECULE
*****
 19 20 0 0 0
SMALL
GASTEIGER

@<TRIPOS>ATOM
      1 C         138.9255  138.9144  165.0667 C.ar    1  UNL1        0.0511
      2 C         138.1556  139.7000  164.0469 C.ar    1  UNL1        0.0163
      3 C         138.4143  139.4875  162.5848 C.ar    1  UNL1        0.0253
      4 C         139.4429  138.4895  162.1424 C.ar    1  UNL1        0.1365
      5 C         140.2128  137.7039  163.1621 C.ar    1  UNL1        0.1541
      6 O         141.2415  136.7057  162.7198 O.3     1  UNL1       -0.5039
      7 C         139.9541  137.9163  164.6243 C.ar    1  UNL1        0.0527
      8 H         141.4031  136.5730  161.8064 H       1  UNL1        0.2923
      9 C         139.5329  140.0658  167.3151 C.3     1  UNL1        0.1122
     10 N         138.6668  139.1268  166.5289 N.pl3   1  UNL1       -0.3040
     11 C         137.5420  138.4003  167.2048 C.3     1  UNL1        0.1122
     12 N         139.7016  138.2770  160.6802 N.2     1  UNL1       -0.1435
     13 N         141.0726  138.5124  160.1192 N.2     1  UNL1       -0.1284
     14 C         141.3313  138.3000  158.6570 C.ar    1  UNL1        0.1838
     15 C         142.7334  138.3588  158.1271 C.ar    1  UNL1        0.0406
     16 C         142.9921  138.1463  156.6649 C.ar    1  UNL1        0.0048
     17 C         141.8487  137.8751  155.7327 C.ar    1  UNL1        0.0208
     18 C         140.4467  137.8163  156.2625 C.ar    1  UNL1        0.1006
     19 N         140.1880  138.0287  157.7247 N.ar    1  UNL1       -0.2236
@<TRIPOS>BOND
     1     9    10    1
     2    10    11    1
     3    10     1    1
     4     1     2   ar
     5     2     3   ar
     6     3     4   ar
     7     4    12    1
     8    12    13    2
     9    13    14    1
    10    14    15   ar
    11    15    16   ar
    12    16    17   ar
    13    17    18   ar
    14    18    19   ar
    15     4     5   ar
    16     5     6    1
    17     5     7   ar
    18     7     1   ar
    19    19    14   ar
    20     6     8    1
@<TRIPOS>MOLECULE
*****
 19 20 0 0 0
SMALL
GASTEIGER

@<TRIPOS>ATOM
      1 C         138.9465  139.8315  160.2620 C.ar    1  UNL1        0.0511
      2 C         140.0979  139.2934  161.0587 C.ar    1  UNL1        0.0163
      3 C         140.1020  139.4240  162.5530 C.ar    1  UNL1        0.0253
      4 C         138.9547  140.0927  163.2506 C.ar    1  UNL1        0.1365
      5 C         137.8034  140.6308  162.4539 C.ar    1  UNL1        0.1541
      6 O         136.6561  141.2995  163.1515 O.3     1  UNL1       -0.5039
      7 C         137.7993  140.5002  160.9596 C.ar    1  UNL1        0.0527
      8 H         136.6586  141.3811  164.0849 H       1  UNL1        0.2923
      9 C         139.7291  138.6073  158.1082 C.3     1  UNL1        0.1122
     10 N         138.9424  139.7009  158.7677 N.pl3   1  UNL1       -0.3040
     11 C         138.1516  140.6640  157.9329 C.3     1  UNL1        0.1122
     12 N         138.9589  140.2233  164.7449 N.2     1  UNL1       -0.1435
     13 N         139.9471  141.1307  165.4157 N.2     1  UNL1       -0.1284
     14 C         139.9512  141.2613  166.9100 C.ar    1  UNL1        0.1838
     15 C         139.3715  140.1695  167.7599 C.ar    1  UNL1        0.0406
     16 C         139.3756  140.3001  169.2542 C.ar    1  UNL1        0.0048
     17 C         139.9594  141.5224  169.8986 C.ar    1  UNL1        0.0208
     18 C         140.5391  142.6141  169.0488 C.ar    1  UNL1        0.1006
     19 N         140.5349  142.4835  167.5545 N.ar    1  UNL1       -0.2236
@<TRIPOS>BOND
     1     9    10    1
     2    10    11    1
     3    10     1    1
     4     1     2   ar
     5     2     3   ar
     6     3     4   ar
     7     4    12    1
     8    12    13    2
     9    13    14    1
    10    14    15   ar
    11    15    16   ar
    12    16    17   ar
    13    17    18   ar
    14    18    19   ar
    15     4     5   ar
    16     5     6    1
    17     5     7   ar
    18     7     1   ar
    19    19    14   ar
    20     6     8    1
@<TRIPOS>MOLECULE
*****
 19 20 0 0 0
SMALL
GASTEIGER

@<TRIPOS>ATOM
      1 C         141.0714  146.0909  155.2475 C.ar    1  UNL1        0.0511
      2 C         139.9278  146.5934  156.0780 C.ar    1  UNL1        0.0163
      3 C         139.8963  146.3227  157.5530 C.ar    1  UNL1        0.0253
      4 C         141.0084  145.5495  158.1975 C.ar    1  UNL1        0.1365
      5 C         142.1519  145.0470  157.3670 C.ar    1  UNL1        0.1541
      6 O         143.2640  144.2737  158.0115 O.3     1  UNL1       -0.5039
      7 C         142.1834  145.3177  155.8920 C.ar    1  UNL1        0.0527
      8 H         143.2444  144.1046  158.9329 H       1  UNL1        0.2923
      9 C         140.6886  147.7042  153.2473 C.3     1  UNL1        0.1122
     10 N         141.1028  146.3616  153.7724 N.pl3   1  UNL1       -0.3040
     11 C         141.5485  145.2897  152.8225 C.3     1  UNL1        0.1122
     12 N         140.9769  145.2788  159.6726 N.2     1  UNL1       -0.1435
     13 N         139.6725  145.3069  160.4126 N.2     1  UNL1       -0.1284
     14 C         139.6410  145.0362  161.8876 C.ar    1  UNL1        0.1838
     15 C         140.9115  145.0732  162.6842 C.ar    1  UNL1        0.0406
     16 C         140.8800  144.8025  164.1592 C.ar    1  UNL1        0.0048
     17 C         139.5780  144.4948  164.8377 C.ar    1  UNL1        0.0208
     18 C         138.3076  144.4577  164.0411 C.ar    1  UNL1        0.1006
     19 N         138.3391  144.7284  162.5660 N.ar    1  UNL1       -0.2236
@<TRIPOS>BOND
     1     9    10    1
     2    10    11    1
     3    10     1    1
     4     1     2   ar
     5     2     3   ar
     6     3     4   ar
     7     4    12    1
     8    12    13    2
     9    13    14    1
    10    14    15   ar
    11    15    16   ar
    12    16    17   ar
    13    17    18   ar
    14    18    19   ar
    15     4     5   ar
    16     5     6    1
    17     5     7   ar
    18     7     1   ar
    19    19    14   ar
    20     6     8    1
