@<TRIPOS>MOLECULE
*****
 29 31 0 0 0
SMALL
GASTEIGER

@<TRIPOS>ATOM
      1 N         140.7582  143.1639  165.2990 N.3     1  UNL1       -0.2725
      2 C         139.2794  143.3404  165.1198 C.3     1  UNL1        0.0749
      3 C         138.7574  144.2655  164.0607 C.3     1  UNL1        0.0517
      4 C         139.7143  145.0141  163.1808 C.3     1  UNL1        0.1544
      5 F         138.4105  145.5105  162.6294 F       1  UNL1       -0.2382
      6 C         141.1930  144.8376  163.3601 C.3     1  UNL1        0.0517
      7 C         141.7149  143.9125  164.4192 C.3     1  UNL1        0.0749
      8 C         141.2802  142.2388  166.3581 C.3     1  UNL1        0.0722
      9 C         137.5955  138.2646  167.0887 C.3     1  UNL1        0.0296
     10 C         138.6070  139.3570  166.9052 C.3     1  UNL1        0.0930
     11 C         138.3700  138.9781  165.4732 C.3     1  UNL1        0.0296
     12 C         139.5361  140.3177  166.2243 C.3     1  UNL1        0.0287
     13 C         140.3510  141.2780  167.0391 C.3     1  UNL1        0.0208
     14 C         140.2367  141.2776  168.5347 C.3     1  UNL1        0.0335
     15 C         139.3076  140.3168  169.2155 C.3     1  UNL1        0.1420
     16 O         138.4927  139.3565  168.4008 O.3     1  UNL1       -0.3585
     17 C         140.2183  145.9351  162.1095 C.3     1  UNL1        0.1224
     18 N         139.7163  145.7951  160.7029 N.am    1  UNL1       -0.2984
     19 C         140.6282  145.2801  159.6290 C.2     1  UNL1        0.2460
     20 O         142.0419  144.9051  159.9617 O.2     1  UNL1       -0.2701
     21 H         138.7884  146.0412  160.4846 H       1  UNL1        0.1498
     22 C         140.1263  145.1400  158.2224 C.ar    1  UNL1        0.0550
     23 C         139.6703  143.8028  157.7185 C.ar    1  UNL1        0.0160
     24 C         139.1684  143.6627  156.3119 C.ar    1  UNL1        0.0587
     25 CL        138.7124  142.3255  155.8079 Cl      1  UNL1       -0.0822
     26 C         139.1225  144.8598  155.4092 C.ar    1  UNL1        0.0228
     27 C         139.5785  146.1970  155.9132 C.ar    1  UNL1        0.0587
     28 CL        139.5326  147.3942  155.0105 Cl      1  UNL1       -0.0822
     29 C         140.0804  146.3372  157.3197 C.ar    1  UNL1        0.0160
@<TRIPOS>BOND
     1     9    10    1
     2    10    11    1
     3    10    12    1
     4    12    13    1
     5    13     8    1
     6     8     1    1
     7     1     2    1
     8     2     3    1
     9     3     4    1
    10     4     5    1
    11     4    17    1
    12    17    18    1
    13    18    19   am
    14    19    20    2
    15    19    22    1
    16    22    23   ar
    17    23    24   ar
    18    24    25    1
    19    24    26   ar
    20    26    27   ar
    21    27    28    1
    22    27    29   ar
    23     4     6    1
    24     6     7    1
    25    13    14    1
    26    14    15    1
    27    15    16    1
    28    16    10    1
    29     7     1    1
    30    29    22   ar
    31    18    21    1
@<TRIPOS>MOLECULE
*****
 29 31 0 0 0
SMALL
GASTEIGER

@<TRIPOS>ATOM
      1 N         140.8754  142.9436  165.0517 N.3     1  UNL1       -0.2725
      2 C         139.3877  143.0513  164.8920 C.3     1  UNL1        0.0749
      3 C         138.8077  144.0180  163.9025 C.3     1  UNL1        0.0517
      4 C         139.7153  144.8771  163.0729 C.3     1  UNL1        0.1544
      5 F         138.3821  145.3388  162.5635 F       1  UNL1       -0.2382
      6 C         141.2029  144.7694  163.2327 C.3     1  UNL1        0.0517
      7 C         141.7829  143.8027  164.2221 C.3     1  UNL1        0.0749
      8 C         141.4554  141.9769  166.0412 C.3     1  UNL1        0.0722
      9 C         139.5075  142.8693  171.0725 C.3     1  UNL1        0.0296
     10 C         140.0355  142.6087  169.6929 C.3     1  UNL1        0.0930
     11 C         140.4920  144.0249  169.8833 C.3     1  UNL1        0.0296
     12 C         140.7221  142.8400  168.3794 C.3     1  UNL1        0.0287
     13 C         140.7688  141.7456  167.3547 C.3     1  UNL1        0.0208
     14 C         140.1290  140.4200  167.6434 C.3     1  UNL1        0.0335
     15 C         139.4425  140.1887  168.9568 C.3     1  UNL1        0.1420
     16 O         139.3958  141.2831  169.9816 O.3     1  UNL1       -0.3585
     17 C         140.1599  145.8966  162.0663 C.3     1  UNL1        0.1224
     18 N         139.6848  145.8053  160.6465 N.am    1  UNL1       -0.2984
     19 C         140.6086  145.3012  159.5775 C.2     1  UNL1        0.2460
     20 O         142.0073  144.8884  159.9285 O.2     1  UNL1       -0.2701
     21 H         138.7668  146.0762  160.4161 H       1  UNL1        0.1498
     22 C         140.1336  145.2099  158.1577 C.ar    1  UNL1        0.0550
     23 C         140.0441  146.4480  157.3156 C.ar    1  UNL1        0.0160
     24 C         139.5691  146.3568  155.8958 C.ar    1  UNL1        0.0587
     25 CL        139.4796  147.5949  155.0538 Cl      1  UNL1       -0.0822
     26 C         139.1836  145.0273  155.3179 C.ar    1  UNL1        0.0228
     27 C         139.2731  143.7891  156.1599 C.ar    1  UNL1        0.0587
     28 CL        138.8876  142.4596  155.5820 Cl      1  UNL1       -0.0822
     29 C         139.7481  143.8804  157.5798 C.ar    1  UNL1        0.0160
@<TRIPOS>BOND
     1     9    10    1
     2    10    11    1
     3    10    12    1
     4    12    13    1
     5    13     8    1
     6     8     1    1
     7     1     2    1
     8     2     3    1
     9     3     4    1
    10     4     5    1
    11     4    17    1
    12    17    18    1
    13    18    19   am
    14    19    20    2
    15    19    22    1
    16    22    23   ar
    17    23    24   ar
    18    24    25    1
    19    24    26   ar
    20    26    27   ar
    21    27    28    1
    22    27    29   ar
    23     4     6    1
    24     6     7    1
    25    13    14    1
    26    14    15    1
    27    15    16    1
    28    16    10    1
    29     7     1    1
    30    29    22   ar
    31    18    21    1
@<TRIPOS>MOLECULE
*****
 29 31 0 0 0
SMALL
GASTEIGER

@<TRIPOS>ATOM
      1 N         142.7682  141.8934  165.4467 N.3     1  UNL1       -0.2725
      2 C         143.9391  142.8306  165.4762 C.3     1  UNL1        0.0749
      3 C         143.9303  144.0687  164.6294 C.3     1  UNL1        0.0517
      4 C         142.7505  144.3696  163.7531 C.3     1  UNL1        0.1544
      5 F         143.6161  145.5542  163.4405 F       1  UNL1       -0.2382
      6 C         141.5797  143.4325  163.7237 C.3     1  UNL1        0.0517
      7 C         141.5885  142.1944  164.5705 C.3     1  UNL1        0.0749
      8 C         142.7770  140.6553  166.2935 C.3     1  UNL1        0.0722
      9 C         140.2107  142.4455  170.7784 C.3     1  UNL1        0.0296
     10 C         140.9187  141.9401  169.5563 C.3     1  UNL1        0.0930
     11 C         140.4441  143.2704  169.0510 C.3     1  UNL1        0.0296
     12 C         141.4619  141.8967  168.1589 C.3     1  UNL1        0.0287
     13 C         142.2338  140.6987  167.6911 C.3     1  UNL1        0.0208
     14 C         142.4625  139.5440  168.6208 C.3     1  UNL1        0.0335
     15 C         141.9193  139.5874  170.0182 C.3     1  UNL1        0.1420
     16 O         141.1474  140.7854  170.4860 O.3     1  UNL1       -0.3585
     17 C         141.8714  145.0820  162.7683 C.3     1  UNL1        0.1224
     18 N         142.1642  144.9924  161.2999 N.am    1  UNL1       -0.2984
     19 C         141.0492  145.1156  160.3040 C.2     1  UNL1        0.2460
     20 O         139.6416  145.3284  160.7766 O.2     1  UNL1       -0.2701
     21 H         143.0881  144.8528  160.9898 H       1  UNL1        0.1498
     22 C         141.3419  145.0261  158.8356 C.ar    1  UNL1        0.0550
     23 C         142.3461  144.0331  158.3302 C.ar    1  UNL1        0.0160
     24 C         142.6389  143.9434  156.8618 C.ar    1  UNL1        0.0587
     25 CL        143.6431  142.9504  156.3564 Cl      1  UNL1       -0.0822
     26 C         141.9273  144.8469  155.8987 C.ar    1  UNL1        0.0228
     27 C         140.9231  145.8400  156.4041 C.ar    1  UNL1        0.0587
     28 CL        140.2116  146.7435  155.4410 Cl      1  UNL1       -0.0822
     29 C         140.6304  145.9296  157.8725 C.ar    1  UNL1        0.0160
@<TRIPOS>BOND
     1     9    10    1
     2    10    11    1
     3    10    12    1
     4    12    13    1
     5    13     8    1
     6     8     1    1
     7     1     2    1
     8     2     3    1
     9     3     4    1
    10     4     5    1
    11     4    17    1
    12    17    18    1
    13    18    19   am
    14    19    20    2
    15    19    22    1
    16    22    23   ar
    17    23    24   ar
    18    24    25    1
    19    24    26   ar
    20    26    27   ar
    21    27    28    1
    22    27    29   ar
    23     4     6    1
    24     6     7    1
    25    13    14    1
    26    14    15    1
    27    15    16    1
    28    16    10    1
    29     7     1    1
    30    29    22   ar
    31    18    21    1
@<TRIPOS>MOLECULE
*****
 29 31 0 0 0
SMALL
GASTEIGER

@<TRIPOS>ATOM
      1 N         139.3614  142.4038  164.9529 N.3     1  UNL1       -0.2725
      2 C         138.0209  142.8253  164.4279 C.3     1  UNL1        0.0749
      3 C         137.9193  143.9684  163.4621 C.3     1  UNL1        0.0517
      4 C         139.1583  144.6901  163.0212 C.3     1  UNL1        0.1544
      5 F         138.1232  145.4544  162.2501 F       1  UNL1       -0.2382
      6 C         140.4987  144.2685  163.5461 C.3     1  UNL1        0.0517
      7 C         140.6002  143.1254  164.5119 C.3     1  UNL1        0.0749
      8 C         139.4629  141.2606  165.9187 C.3     1  UNL1        0.0722
      9 C         142.2268  142.8179  170.3730 C.3     1  UNL1        0.0296
     10 C         141.4796  142.3779  169.1490 C.3     1  UNL1        0.0930
     11 C         140.6568  143.5689  169.5424 C.3     1  UNL1        0.0296
     12 C         140.4466  142.3515  168.0617 C.3     1  UNL1        0.0287
     13 C         140.4959  141.2870  167.0061 C.3     1  UNL1        0.0208
     14 C         141.5781  140.2489  167.0378 C.3     1  UNL1        0.0335
     15 C         142.6111  140.2753  168.1251 C.3     1  UNL1        0.1420
     16 O         142.5618  141.3398  169.1807 O.3     1  UNL1       -0.3585
     17 C         140.0377  145.6772  162.3124 C.3     1  UNL1        0.1224
     18 N         139.9780  145.7974  160.8184 N.am    1  UNL1       -0.2984
     19 C         141.1091  145.2820  159.9788 C.2     1  UNL1        0.2460
     20 O         142.2999  144.6466  160.6332 O.2     1  UNL1       -0.2701
     21 H         139.1964  146.2144  160.3890 H       1  UNL1        0.1498
     22 C         141.0495  145.4022  158.4848 C.ar    1  UNL1        0.0550
     23 C         142.0566  144.6867  157.6341 C.ar    1  UNL1        0.0160
     24 C         141.9970  144.8068  156.1401 C.ar    1  UNL1        0.0587
     25 CL        143.0042  144.0914  155.2893 Cl      1  UNL1       -0.0822
     26 C         140.9302  145.6424  155.4968 C.ar    1  UNL1        0.0228
     27 C         139.9231  146.3578  156.3476 C.ar    1  UNL1        0.0587
     28 CL        138.8562  147.1934  155.7043 Cl      1  UNL1       -0.0822
     29 C         139.9826  146.2378  157.8416 C.ar    1  UNL1        0.0160
@<TRIPOS>BOND
     1     9    10    1
     2    10    11    1
     3    10    12    1
     4    12    13    1
     5    13     8    1
     6     8     1    1
     7     1     2    1
     8     2     3    1
     9     3     4    1
    10     4     5    1
    11     4    17    1
    12    17    18    1
    13    18    19   am
    14    19    20    2
    15    19    22    1
    16    22    23   ar
    17    23    24   ar
    18    24    25    1
    19    24    26   ar
    20    26    27   ar
    21    27    28    1
    22    27    29   ar
    23     4     6    1
    24     6     7    1
    25    13    14    1
    26    14    15    1
    27    15    16    1
    28    16    10    1
    29     7     1    1
    30    29    22   ar
    31    18    21    1
@<TRIPOS>MOLECULE
*****
 29 31 0 0 0
SMALL
GASTEIGER

@<TRIPOS>ATOM
      1 N         142.9018  142.0277  165.5704 N.3     1  UNL1       -0.2725
      2 C         144.0981  142.9270  165.4701 C.3     1  UNL1        0.0749
      3 C         144.0625  144.1247  164.5677 C.3     1  UNL1        0.0517
      4 C         142.8305  144.4231  163.7657 C.3     1  UNL1        0.1544
      5 F         143.7044  145.5636  163.3348 F       1  UNL1       -0.2382
      6 C         141.6342  143.5238  163.8660 C.3     1  UNL1        0.0517
      7 C         141.6699  142.3261  164.7683 C.3     1  UNL1        0.0749
      8 C         142.9374  140.8300  166.4727 C.3     1  UNL1        0.0722
      9 C         138.8049  140.1689  169.9927 C.3     1  UNL1        0.0296
     10 C         139.9481  140.3561  169.0398 C.3     1  UNL1        0.0930
     11 C         138.9121  139.8137  168.1003 C.3     1  UNL1        0.0296
     12 C         140.7316  140.3550  167.7607 C.3     1  UNL1        0.0287
     13 C         142.1539  140.8312  167.7519 C.3     1  UNL1        0.0208
     14 C         142.7929  141.3085  169.0223 C.3     1  UNL1        0.0335
     15 C         142.0094  141.3097  170.3014 C.3     1  UNL1        0.1420
     16 O         140.5871  140.8335  170.3102 O.3     1  UNL1       -0.3585
     17 C         141.9021  145.1176  162.8140 C.3     1  UNL1        0.1224
     18 N         142.1469  145.0396  161.3362 N.am    1  UNL1       -0.2984
     19 C         140.9984  145.1581  160.3785 C.2     1  UNL1        0.2460
     20 O         139.6053  145.3548  160.8987 O.2     1  UNL1       -0.2701
     21 H         143.0612  144.9105  160.9948 H       1  UNL1        0.1498
     22 C         141.2431  145.0801  158.9007 C.ar    1  UNL1        0.0550
     23 C         140.4921  145.9828  157.9674 C.ar    1  UNL1        0.0160
     24 C         140.7368  145.9048  156.4895 C.ar    1  UNL1        0.0587
     25 CL        139.9858  146.8076  155.5563 Cl      1  UNL1       -0.0822
     26 C         141.7325  144.9240  155.9449 C.ar    1  UNL1        0.0228
     27 C         142.4835  144.0212  156.8782 C.ar    1  UNL1        0.0587
     28 CL        143.4792  143.0404  156.3336 Cl      1  UNL1       -0.0822
     29 C         142.2388  144.0992  158.3561 C.ar    1  UNL1        0.0160
@<TRIPOS>BOND
     1     9    10    1
     2    10    11    1
     3    10    12    1
     4    12    13    1
     5    13     8    1
     6     8     1    1
     7     1     2    1
     8     2     3    1
     9     3     4    1
    10     4     5    1
    11     4    17    1
    12    17    18    1
    13    18    19   am
    14    19    20    2
    15    19    22    1
    16    22    23   ar
    17    23    24   ar
    18    24    25    1
    19    24    26   ar
    20    26    27   ar
    21    27    28    1
    22    27    29   ar
    23     4     6    1
    24     6     7    1
    25    13    14    1
    26    14    15    1
    27    15    16    1
    28    16    10    1
    29     7     1    1
    30    29    22   ar
    31    18    21    1
@<TRIPOS>MOLECULE
*****
 29 31 0 0 0
SMALL
GASTEIGER

@<TRIPOS>ATOM
      1 N         140.7700  143.2301  165.2544 N.3     1  UNL1       -0.2725
      2 C         139.2895  143.3895  165.0726 C.3     1  UNL1        0.0749
      3 C         138.7587  144.2964  164.0023 C.3     1  UNL1        0.0517
      4 C         139.7083  145.0439  163.1137 C.3     1  UNL1        0.1544
      5 F         138.3998  145.5204  162.5560 F       1  UNL1       -0.2382
      6 C         141.1886  144.8845  163.2955 C.3     1  UNL1        0.0517
      7 C         141.7195  143.9776  164.3659 C.3     1  UNL1        0.0749
      8 C         141.3008  142.3232  166.3248 C.3     1  UNL1        0.0722
      9 C         137.6703  138.2919  167.0124 C.3     1  UNL1        0.0296
     10 C         138.6670  139.3996  166.8407 C.3     1  UNL1        0.0930
     11 C         138.4259  139.0411  165.4042 C.3     1  UNL1        0.0296
     12 C         139.5799  140.3829  166.1700 C.3     1  UNL1        0.0287
     13 C         140.3879  141.3399  166.9955 C.3     1  UNL1        0.0208
     14 C         140.2829  141.3137  168.4915 C.3     1  UNL1        0.0335
     15 C         139.3699  140.3305  169.1622 C.3     1  UNL1        0.1420
     16 O         138.5620  139.3734  168.3367 O.3     1  UNL1       -0.3585
     17 C         140.2034  145.9570  162.0314 C.3     1  UNL1        0.1224
     18 N         141.1336  145.4347  160.9769 N.am    1  UNL1       -0.2984
     19 C         140.6382  144.4472  159.9623 C.2     1  UNL1        0.2460
     20 O         139.2127  143.9821  160.0022 O.2     1  UNL1       -0.2701
     21 H         142.0692  145.7400  160.9508 H       1  UNL1        0.1498
     22 C         141.5683  143.9248  158.9077 C.ar    1  UNL1        0.0550
     23 C         141.6597  144.6156  157.5794 C.ar    1  UNL1        0.0160
     24 C         142.5898  144.0933  156.5248 C.ar    1  UNL1        0.0587
     25 CL        142.6812  144.7840  155.1965 Cl      1  UNL1       -0.0822
     26 C         143.4285  142.8801  156.7986 C.ar    1  UNL1        0.0228
     27 C         143.3370  142.1894  158.1270 C.ar    1  UNL1        0.0587
     28 CL        144.1757  140.9762  158.4008 Cl      1  UNL1       -0.0822
     29 C         142.4070  142.7117  159.1815 C.ar    1  UNL1        0.0160
@<TRIPOS>BOND
     1     9    10    1
     2    10    11    1
     3    10    12    1
     4    12    13    1
     5    13     8    1
     6     8     1    1
     7     1     2    1
     8     2     3    1
     9     3     4    1
    10     4     5    1
    11     4    17    1
    12    17    18    1
    13    18    19   am
    14    19    20    2
    15    19    22    1
    16    22    23   ar
    17    23    24   ar
    18    24    25    1
    19    24    26   ar
    20    26    27   ar
    21    27    28    1
    22    27    29   ar
    23     4     6    1
    24     6     7    1
    25    13    14    1
    26    14    15    1
    27    15    16    1
    28    16    10    1
    29     7     1    1
    30    29    22   ar
    31    18    21    1
@<TRIPOS>MOLECULE
*****
 29 31 0 0 0
SMALL
GASTEIGER

@<TRIPOS>ATOM
      1 N         143.0820  138.9825  160.5729 N.3     1  UNL1       -0.2725
      2 C         142.0576  138.0400  161.1318 C.3     1  UNL1        0.0749
      3 C         141.9932  137.7929  162.6099 C.3     1  UNL1        0.0517
      4 C         142.9533  138.4883  163.5291 C.3     1  UNL1        0.1544
      5 F         142.1675  137.6912  164.5277 F       1  UNL1       -0.2382
      6 C         143.9776  139.4307  162.9701 C.3     1  UNL1        0.0517
      7 C         144.0420  139.6778  161.4920 C.3     1  UNL1        0.0749
      8 C         143.1464  139.2296  159.0947 C.3     1  UNL1        0.0722
      9 C         141.5120  135.2979  155.6632 C.3     1  UNL1        0.0296
     10 C         141.9452  136.3839  156.6029 C.3     1  UNL1        0.0930
     11 C         143.1901  135.5474  156.5800 C.3     1  UNL1        0.0296
     12 C         142.8106  137.1793  157.5347 C.3     1  UNL1        0.0287
     13 C         142.2808  138.4341  158.1630 C.3     1  UNL1        0.0208
     14 C         140.8855  138.8935  157.8595 C.3     1  UNL1        0.0335
     15 C         140.0201  138.0980  156.9278 C.3     1  UNL1        0.1420
     16 O         140.5499  136.8432  156.2995 O.3     1  UNL1       -0.3585
     17 C         143.6404  138.9068  164.7951 C.3     1  UNL1        0.1224
     18 N         142.9076  139.7370  165.8069 N.am    1  UNL1       -0.2984
     19 C         142.9355  139.3505  167.2560 C.2     1  UNL1        0.2460
     20 O         143.6962  138.1338  167.6932 O.2     1  UNL1       -0.2701
     21 H         142.4084  140.5355  165.5199 H       1  UNL1        0.1498
     22 C         142.2028  140.1806  168.2679 C.ar    1  UNL1        0.0550
     23 C         140.7753  139.8658  168.6042 C.ar    1  UNL1        0.0160
     24 C         140.0425  140.6959  169.6161 C.ar    1  UNL1        0.0587
     25 CL        138.6150  140.3811  169.9524 Cl      1  UNL1       -0.0822
     26 C         140.7372  141.8409  170.2917 C.ar    1  UNL1        0.0228
     27 C         142.1647  142.1557  169.9554 C.ar    1  UNL1        0.0587
     28 CL        142.8595  143.3006  170.6310 Cl      1  UNL1       -0.0822
     29 C         142.8976  141.3256  168.9435 C.ar    1  UNL1        0.0160
@<TRIPOS>BOND
     1     9    10    1
     2    10    11    1
     3    10    12    1
     4    12    13    1
     5    13     8    1
     6     8     1    1
     7     1     2    1
     8     2     3    1
     9     3     4    1
    10     4     5    1
    11     4    17    1
    12    17    18    1
    13    18    19   am
    14    19    20    2
    15    19    22    1
    16    22    23   ar
    17    23    24   ar
    18    24    25    1
    19    24    26   ar
    20    26    27   ar
    21    27    28    1
    22    27    29   ar
    23     4     6    1
    24     6     7    1
    25    13    14    1
    26    14    15    1
    27    15    16    1
    28    16    10    1
    29     7     1    1
    30    29    22   ar
    31    18    21    1
@<TRIPOS>MOLECULE
*****
 29 31 0 0 0
SMALL
GASTEIGER

@<TRIPOS>ATOM
      1 N         138.7952  139.2456  165.5872 N.3     1  UNL1       -0.2725
      2 C         139.1615  137.9477  164.9303 C.3     1  UNL1        0.0749
      3 C         138.9119  137.7525  163.4641 C.3     1  UNL1        0.0517
      4 C         138.2961  138.8552  162.6549 C.3     1  UNL1        0.1544
      5 F         138.4694  137.8149  161.5882 F       1  UNL1       -0.2382
      6 C         137.9298  140.1530  163.3118 C.3     1  UNL1        0.0517
      7 C         138.1794  140.3482  164.7779 C.3     1  UNL1        0.0749
      8 C         139.0448  139.4408  167.0533 C.3     1  UNL1        0.0722
      9 C         141.6374  143.2358  170.0167 C.3     1  UNL1        0.0296
     10 C         140.9396  142.1939  169.1934 C.3     1  UNL1        0.0930
     11 C         139.8947  142.4411  170.2409 C.3     1  UNL1        0.0296
     12 C         139.8790  141.2380  168.7339 C.3     1  UNL1        0.0287
     13 C         140.1055  140.3967  167.5128 C.3     1  UNL1        0.0208
     14 C         141.3927  140.5114  166.7513 C.3     1  UNL1        0.0335
     15 C         142.4533  141.4674  167.2108 C.3     1  UNL1        0.1420
     16 O         142.2268  142.3086  168.4319 O.3     1  UNL1       -0.3585
     17 C         137.7404  139.5966  161.4752 C.3     1  UNL1        0.1224
     18 N         138.1370  141.0224  161.2308 N.am    1  UNL1       -0.2984
     19 C         139.1172  141.3525  160.1444 C.2     1  UNL1        0.2460
     20 O         139.7008  140.2568  159.3025 O.2     1  UNL1       -0.2701
     21 H         137.7539  141.7415  161.7834 H       1  UNL1        0.1498
     22 C         139.5139  142.7783  159.9000 C.ar    1  UNL1        0.0550
     23 C         139.7846  143.2524  158.5029 C.ar    1  UNL1        0.0160
     24 C         140.1813  144.6782  158.2583 C.ar    1  UNL1        0.0587
     25 CL        140.4520  145.1524  156.8613 Cl      1  UNL1       -0.0822
     26 C         140.3072  145.6299  159.4110 C.ar    1  UNL1        0.0228
     27 C         140.0365  145.1557  160.8081 C.ar    1  UNL1        0.0587
     28 CL        140.1624  146.1073  161.9607 Cl      1  UNL1       -0.0822
     29 C         139.6398  143.7299  161.0526 C.ar    1  UNL1        0.0160
@<TRIPOS>BOND
     1     9    10    1
     2    10    11    1
     3    10    12    1
     4    12    13    1
     5    13     8    1
     6     8     1    1
     7     1     2    1
     8     2     3    1
     9     3     4    1
    10     4     5    1
    11     4    17    1
    12    17    18    1
    13    18    19   am
    14    19    20    2
    15    19    22    1
    16    22    23   ar
    17    23    24   ar
    18    24    25    1
    19    24    26   ar
    20    26    27   ar
    21    27    28    1
    22    27    29   ar
    23     4     6    1
    24     6     7    1
    25    13    14    1
    26    14    15    1
    27    15    16    1
    28    16    10    1
    29     7     1    1
    30    29    22   ar
    31    18    21    1
@<TRIPOS>MOLECULE
*****
 29 31 0 0 0
SMALL
GASTEIGER

@<TRIPOS>ATOM
      1 N         140.6342  143.0714  165.3025 N.3     1  UNL1       -0.2725
      2 C         139.1617  143.2426  165.0734 C.3     1  UNL1        0.0749
      3 C         138.6722  144.1799  164.0095 C.3     1  UNL1        0.0517
      4 C         139.6552  144.9460  163.1747 C.3     1  UNL1        0.1544
      5 F         138.3690  145.4432  162.5844 F       1  UNL1       -0.2382
      6 C         141.1277  144.7747  163.4038 C.3     1  UNL1        0.0517
      7 C         141.6172  143.8375  164.4677 C.3     1  UNL1        0.0749
      8 C         141.1237  142.1342  166.3664 C.3     1  UNL1        0.0722
      9 C         141.0264  136.9835  164.5316 C.3     1  UNL1        0.0296
     10 C         141.0696  138.3947  165.0385 C.3     1  UNL1        0.0930
     11 C         139.6258  138.3046  164.6416 C.3     1  UNL1        0.0296
     12 C         140.6114  139.7745  165.4075 C.3     1  UNL1        0.0287
     13 C         141.5820  140.7543  165.9974 C.3     1  UNL1        0.0208
     14 C         143.0107  140.3544  166.2183 C.3     1  UNL1        0.0335
     15 C         143.4688  138.9746  165.8492 C.3     1  UNL1        0.1420
     16 O         142.4983  137.9947  165.2594 O.3     1  UNL1       -0.3585
     17 C         140.1915  145.8847  162.1348 C.3     1  UNL1        0.1224
     18 N         139.7252  145.7750  160.7134 N.am    1  UNL1       -0.2984
     19 C         140.6585  145.2662  159.6551 C.2     1  UNL1        0.2460
     20 O         142.0581  144.8672  160.0182 O.2     1  UNL1       -0.2701
     21 H         138.8066  146.0369  160.4751 H       1  UNL1        0.1498
     22 C         140.1923  145.1564  158.2337 C.ar    1  UNL1        0.0550
     23 C         140.0346  146.3924  157.3985 C.ar    1  UNL1        0.0160
     24 C         139.5684  146.2827  155.9770 C.ar    1  UNL1        0.0587
     25 CL        139.4107  147.5187  155.1418 Cl      1  UNL1       -0.0822
     26 C         139.2597  144.9370  155.3907 C.ar    1  UNL1        0.0228
     27 C         139.4174  143.7010  156.2259 C.ar    1  UNL1        0.0587
     28 CL        139.1087  142.3553  155.6395 Cl      1  UNL1       -0.0822
     29 C         139.8836  143.8107  157.6473 C.ar    1  UNL1        0.0160
@<TRIPOS>BOND
     1     9    10    1
     2    10    11    1
     3    10    12    1
     4    12    13    1
     5    13     8    1
     6     8     1    1
     7     1     2    1
     8     2     3    1
     9     3     4    1
    10     4     5    1
    11     4    17    1
    12    17    18    1
    13    18    19   am
    14    19    20    2
    15    19    22    1
    16    22    23   ar
    17    23    24   ar
    18    24    25    1
    19    24    26   ar
    20    26    27   ar
    21    27    28    1
    22    27    29   ar
    23     4     6    1
    24     6     7    1
    25    13    14    1
    26    14    15    1
    27    15    16    1
    28    16    10    1
    29     7     1    1
    30    29    22   ar
    31    18    21    1
