@<TRIPOS>MOLECULE
*****
 26 28 0 0 0
SMALL
GASTEIGER

@<TRIPOS>ATOM
      1 C         139.9922  144.3371  163.5298 C.ar    1  UNL1        0.1253
      2 C         141.4022  144.4843  163.0399 C.ar    1  UNL1        0.1098
      3 N         141.6732  144.6526  161.5742 N.ar    1  UNL1       -0.2234
      4 C         140.5341  144.6738  160.5985 C.ar    1  UNL1        0.1831
      5 N         139.1240  144.5266  161.0884 N.ar    1  UNL1       -0.1910
      6 C         138.8531  144.3582  162.5542 C.ar    1  UNL1        0.2289
      7 O         137.4430  144.2110  163.0441 O.3     1  UNL1       -0.4918
      8 H         136.7315  144.2242  162.4346 H       1  UNL1        0.2938
      9 C         140.8051  144.8421  159.1328 C.ar    1  UNL1        0.1171
     10 C         139.9723  144.1046  158.1265 C.ar    1  UNL1        0.0223
     11 C         140.2433  144.2729  156.6609 C.ar    1  UNL1        0.0032
     12 C         141.3471  145.1788  156.2014 C.ar    1  UNL1        0.0207
     13 C         142.1798  145.9164  157.2077 C.ar    1  UNL1        0.0989
     14 N         141.9088  145.7480  158.6734 N.ar    1  UNL1       -0.2407
     15 O         138.6922  145.0258  165.6713 O.2     1  UNL1       -0.2699
     16 C         139.7212  144.1688  164.9955 C.2     1  UNL1        0.2522
     17 N         140.4792  143.1433  165.7855 N.am    1  UNL1       -0.2967
     18 H         141.1546  142.5808  165.3420 H       1  UNL1        0.1501
     19 C         140.2083  142.9750  167.2511 C.3     1  UNL1        0.1166
     20 C         140.7781  141.7999  167.9891 C.ar    1  UNL1       -0.0024
     21 C         142.1292  141.2646  167.6178 C.ar    1  UNL1       -0.0003
     22 C         142.6990  140.0896  168.3558 C.ar    1  UNL1        0.0294
     23 C         141.9177  139.4499  169.4651 C.ar    1  UNL1        0.1401
     24 F         142.4876  138.2749  170.2031 F       1  UNL1       -0.2042
     25 C         140.5666  139.9853  169.8363 C.ar    1  UNL1        0.0294
     26 C         139.9968  141.1603  169.0984 C.ar    1  UNL1       -0.0003
@<TRIPOS>BOND
     1    15    16    2
     2    16    17   am
     3    17    19    1
     4    19    20    1
     5    20    21   ar
     6    21    22   ar
     7    22    23   ar
     8    23    24    1
     9    23    25   ar
    10    25    26   ar
    11    16     1    1
    12     1     2   ar
    13     2     3   ar
    14     3     4   ar
    15     4     9    1
    16     9    10   ar
    17    10    11   ar
    18    11    12   ar
    19    12    13   ar
    20    13    14   ar
    21     4     5   ar
    22     5     6   ar
    23     6     7    1
    24    26    20   ar
    25     6     1   ar
    26    14     9   ar
    27    17    18    1
    28     7     8    1
@<TRIPOS>MOLECULE
*****
 26 28 0 0 0
SMALL
GASTEIGER

@<TRIPOS>ATOM
      1 C         140.7748  144.1849  162.4270 C.ar    1  UNL1        0.1253
      2 C         142.0764  144.0514  161.6935 C.ar    1  UNL1        0.1098
      3 N         142.1660  144.4412  160.2478 N.ar    1  UNL1       -0.2234
      4 C         140.9540  144.9647  159.5356 C.ar    1  UNL1        0.1831
      5 N         139.6524  145.0982  160.2691 N.ar    1  UNL1       -0.1910
      6 C         139.5628  144.7083  161.7149 C.ar    1  UNL1        0.2289
      7 O         138.2613  144.8418  162.4484 O.3     1  UNL1       -0.4918
      8 H         137.5042  145.1688  162.0035 H       1  UNL1        0.2938
      9 C         141.0436  145.3545  158.0900 C.ar    1  UNL1        0.1171
     10 C         142.1526  144.8162  157.2353 C.ar    1  UNL1        0.0223
     11 C         142.2422  145.2060  155.7897 C.ar    1  UNL1        0.0032
     12 C         141.2228  146.1343  155.1986 C.ar    1  UNL1        0.0207
     13 C         140.1139  146.6727  156.0533 C.ar    1  UNL1        0.0989
     14 N         140.0243  146.2827  157.4990 N.ar    1  UNL1       -0.2407
     15 O         139.8946  144.6378  164.8291 O.2     1  UNL1       -0.2699
     16 C         140.6852  143.7950  163.8726 C.2     1  UNL1        0.2522
     17 N         141.3862  142.5624  164.3619 N.am    1  UNL1       -0.2967
     18 H         141.9051  142.0093  163.7341 H       1  UNL1        0.1501
     19 C         141.2965  142.1725  165.8075 C.3     1  UNL1        0.1166
     20 C         140.2626  141.1819  166.2545 C.ar    1  UNL1       -0.0024
     21 C         139.3205  140.5787  165.2553 C.ar    1  UNL1       -0.0003
     22 C         138.2866  139.5881  165.7023 C.ar    1  UNL1        0.0294
     23 C         138.1950  139.2006  167.1485 C.ar    1  UNL1        0.1401
     24 F         137.1611  138.2100  167.5954 F       1  UNL1       -0.2042
     25 C         139.1372  139.8038  168.1477 C.ar    1  UNL1        0.0294
     26 C         140.1710  140.7944  167.7007 C.ar    1  UNL1       -0.0003
@<TRIPOS>BOND
     1    15    16    2
     2    16    17   am
     3    17    19    1
     4    19    20    1
     5    20    21   ar
     6    21    22   ar
     7    22    23   ar
     8    23    24    1
     9    23    25   ar
    10    25    26   ar
    11    16     1    1
    12     1     2   ar
    13     2     3   ar
    14     3     4   ar
    15     4     9    1
    16     9    10   ar
    17    10    11   ar
    18    11    12   ar
    19    12    13   ar
    20    13    14   ar
    21     4     5   ar
    22     5     6   ar
    23     6     7    1
    24    26    20   ar
    25     6     1   ar
    26    14     9   ar
    27    17    18    1
    28     7     8    1
@<TRIPOS>MOLECULE
*****
 26 28 0 0 0
SMALL
GASTEIGER

@<TRIPOS>ATOM
      1 C         140.0411  143.7791  163.2046 C.ar    1  UNL1        0.1253
      2 C         141.4506  143.6757  162.7020 C.ar    1  UNL1        0.1098
      3 N         141.7704  144.0464  161.2842 N.ar    1  UNL1       -0.2234
      4 C         140.6807  144.5206  160.3689 C.ar    1  UNL1        0.1831
      5 N         139.2711  144.6240  160.8715 N.ar    1  UNL1       -0.1910
      6 C         138.9514  144.2532  162.2894 C.ar    1  UNL1        0.2289
      7 O         137.5419  144.3566  162.7920 O.3     1  UNL1       -0.4918
      8 H         136.8612  144.6528  162.2202 H       1  UNL1        0.2938
      9 C         141.0005  144.8913  158.9511 C.ar    1  UNL1        0.1171
     10 C         142.1883  144.2828  158.2664 C.ar    1  UNL1        0.0223
     11 C         142.5081  144.6535  156.8486 C.ar    1  UNL1        0.0032
     12 C         141.6400  145.6327  156.1154 C.ar    1  UNL1        0.0207
     13 C         140.4522  146.2413  156.8000 C.ar    1  UNL1        0.0989
     14 N         140.1324  145.8705  158.2179 N.ar    1  UNL1       -0.2407
     15 O         138.8762  144.3188  165.4633 O.2     1  UNL1       -0.2699
     16 C         139.7213  143.4084  164.6224 C.2     1  UNL1        0.2522
     17 N         140.2465  142.1272  165.1994 N.am    1  UNL1       -0.2967
     18 H         140.8012  141.5297  164.6475 H       1  UNL1        0.1501
     19 C         139.9267  141.7565  166.6172 C.3     1  UNL1        0.1166
     20 C         140.8121  142.2263  167.7333 C.ar    1  UNL1       -0.0024
     21 C         140.2636  143.1332  168.7947 C.ar    1  UNL1       -0.0003
     22 C         141.1490  143.6029  169.9107 C.ar    1  UNL1        0.0294
     23 C         142.5829  143.1658  169.9652 C.ar    1  UNL1        0.1401
     24 F         143.4683  143.6356  171.0812 F       1  UNL1       -0.2042
     25 C         143.1314  142.2590  168.9037 C.ar    1  UNL1        0.0294
     26 C         142.2460  141.7892  167.7878 C.ar    1  UNL1       -0.0003
@<TRIPOS>BOND
     1    15    16    2
     2    16    17   am
     3    17    19    1
     4    19    20    1
     5    20    21   ar
     6    21    22   ar
     7    22    23   ar
     8    23    24    1
     9    23    25   ar
    10    25    26   ar
    11    16     1    1
    12     1     2   ar
    13     2     3   ar
    14     3     4   ar
    15     4     9    1
    16     9    10   ar
    17    10    11   ar
    18    11    12   ar
    19    12    13   ar
    20    13    14   ar
    21     4     5   ar
    22     5     6   ar
    23     6     7    1
    24    26    20   ar
    25     6     1   ar
    26    14     9   ar
    27    17    18    1
    28     7     8    1
@<TRIPOS>MOLECULE
*****
 26 28 0 0 0
SMALL
GASTEIGER

@<TRIPOS>ATOM
      1 C         139.3914  141.9395  162.8446 C.ar    1  UNL1        0.1253
      2 C         140.6624  142.6485  162.4814 C.ar    1  UNL1        0.1098
      3 N         140.7782  143.3515  161.1615 N.ar    1  UNL1       -0.2234
      4 C         139.6229  143.3455  160.2046 C.ar    1  UNL1        0.1831
      5 N         138.3520  142.6364  160.5678 N.ar    1  UNL1       -0.1910
      6 C         138.2362  141.9334  161.8878 C.ar    1  UNL1        0.2289
      7 O         136.9653  141.2244  162.2510 O.3     1  UNL1       -0.4918
      8 H         136.2437  141.2206  161.6533 H       1  UNL1        0.2938
      9 C         139.7387  144.0485  158.8846 C.ar    1  UNL1        0.1171
     10 C         140.5140  145.3285  158.7820 C.ar    1  UNL1        0.0223
     11 C         140.6298  146.0315  157.4621 C.ar    1  UNL1        0.0032
     12 C         139.9703  145.4545  156.2446 C.ar    1  UNL1        0.0207
     13 C         139.1950  144.1745  156.3472 C.ar    1  UNL1        0.0989
     14 N         139.0792  143.4715  157.6673 N.ar    1  UNL1       -0.2407
     15 O         137.9397  141.1175  164.8363 O.2     1  UNL1       -0.2699
     16 C         139.2756  141.2365  164.1646 C.2     1  UNL1        0.2522
     17 N         140.4958  140.6524  164.8129 N.am    1  UNL1       -0.2967
     18 H         141.3726  140.7305  164.3720 H       1  UNL1        0.1501
     19 C         140.3800  139.9494  166.1328 C.3     1  UNL1        0.1166
     20 C         140.1799  140.7428  167.3901 C.ar    1  UNL1       -0.0024
     21 C         139.5105  140.1132  168.5756 C.ar    1  UNL1       -0.0003
     22 C         139.3104  140.9065  169.8328 C.ar    1  UNL1        0.0294
     23 C         139.7797  142.3294  169.9045 C.ar    1  UNL1        0.1401
     24 F         139.5796  143.1227  171.1617 F       1  UNL1       -0.2042
     25 C         140.4491  142.9590  168.7189 C.ar    1  UNL1        0.0294
     26 C         140.6491  142.1657  167.4618 C.ar    1  UNL1       -0.0003
@<TRIPOS>BOND
     1    15    16    2
     2    16    17   am
     3    17    19    1
     4    19    20    1
     5    20    21   ar
     6    21    22   ar
     7    22    23   ar
     8    23    24    1
     9    23    25   ar
    10    25    26   ar
    11    16     1    1
    12     1     2   ar
    13     2     3   ar
    14     3     4   ar
    15     4     9    1
    16     9    10   ar
    17    10    11   ar
    18    11    12   ar
    19    12    13   ar
    20    13    14   ar
    21     4     5   ar
    22     5     6   ar
    23     6     7    1
    24    26    20   ar
    25     6     1   ar
    26    14     9   ar
    27    17    18    1
    28     7     8    1
@<TRIPOS>MOLECULE
*****
 26 28 0 0 0
SMALL
GASTEIGER

@<TRIPOS>ATOM
      1 C         140.1157  144.5160  162.4571 C.ar    1  UNL1        0.1253
      2 C         141.3884  144.0328  163.0869 C.ar    1  UNL1        0.1098
      3 N         141.3406  143.2240  164.3492 N.ar    1  UNL1       -0.2234
      4 C         140.0200  142.8984  164.9818 C.ar    1  UNL1        0.1831
      5 N         138.7473  143.3815  164.3520 N.ar    1  UNL1       -0.1910
      6 C         138.7951  144.1904  163.0896 C.ar    1  UNL1        0.2289
      7 O         137.5224  144.6735  162.4597 O.3     1  UNL1       -0.4918
      8 H         136.6975  144.4701  162.8549 H       1  UNL1        0.2938
      9 C         139.9722  142.0896  166.2441 C.ar    1  UNL1        0.1171
     10 C         140.5101  142.6616  167.5222 C.ar    1  UNL1        0.0223
     11 C         140.4623  141.8528  168.7846 C.ar    1  UNL1        0.0032
     12 C         139.8766  140.4720  168.7689 C.ar    1  UNL1        0.0207
     13 C         139.3387  139.8999  167.4908 C.ar    1  UNL1        0.0989
     14 N         139.3865  140.7088  166.2284 N.ar    1  UNL1       -0.2407
     15 O         139.2369  146.4906  161.0154 O.2     1  UNL1       -0.2699
     16 C         140.1635  145.3247  161.1947 C.2     1  UNL1        0.2522
     17 N         141.1379  144.9676  160.1116 N.am    1  UNL1       -0.2967
     18 H         141.7460  144.2024  160.2293 H       1  UNL1        0.1501
     19 C         141.1857  145.7764  158.8493 C.3     1  UNL1        0.1166
     20 C         140.2434  145.4668  157.7240 C.ar    1  UNL1       -0.0024
     21 C         139.7988  146.5583  156.7961 C.ar    1  UNL1       -0.0003
     22 C         138.8565  146.2486  155.6709 C.ar    1  UNL1        0.0294
     23 C         138.3589  144.8474  155.4735 C.ar    1  UNL1        0.1401
     24 F         137.4166  144.5377  154.3482 F       1  UNL1       -0.2042
     25 C         138.8034  143.7559  156.4013 C.ar    1  UNL1        0.0294
     26 C         139.7457  144.0656  157.5266 C.ar    1  UNL1       -0.0003
@<TRIPOS>BOND
     1    15    16    2
     2    16    17   am
     3    17    19    1
     4    19    20    1
     5    20    21   ar
     6    21    22   ar
     7    22    23   ar
     8    23    24    1
     9    23    25   ar
    10    25    26   ar
    11    16     1    1
    12     1     2   ar
    13     2     3   ar
    14     3     4   ar
    15     4     9    1
    16     9    10   ar
    17    10    11   ar
    18    11    12   ar
    19    12    13   ar
    20    13    14   ar
    21     4     5   ar
    22     5     6   ar
    23     6     7    1
    24    26    20   ar
    25     6     1   ar
    26    14     9   ar
    27    17    18    1
    28     7     8    1
@<TRIPOS>MOLECULE
*****
 26 28 0 0 0
SMALL
GASTEIGER

@<TRIPOS>ATOM
      1 C         138.4940  139.4572  162.5274 C.ar    1  UNL1        0.1253
      2 C         139.3409  138.7991  161.4788 C.ar    1  UNL1        0.1098
      3 N         139.2623  139.2597  160.0534 N.ar    1  UNL1       -0.2234
      4 C         138.3367  140.3784  159.6767 C.ar    1  UNL1        0.1831
      5 N         137.4898  141.0365  160.7253 N.ar    1  UNL1       -0.1910
      6 C         137.5684  140.5758  162.1507 C.ar    1  UNL1        0.2289
      7 O         136.7215  141.2339  163.1993 O.3     1  UNL1       -0.4918
      8 H         136.1433  141.9327  162.9640 H       1  UNL1        0.2938
      9 C         138.2582  140.8390  158.2513 C.ar    1  UNL1        0.1171
     10 C         138.1978  142.3049  157.9391 C.ar    1  UNL1        0.0223
     11 C         138.1192  142.7655  156.5137 C.ar    1  UNL1        0.0032
     12 C         138.1010  141.7601  155.4006 C.ar    1  UNL1        0.0207
     13 C         138.1613  140.2943  155.7128 C.ar    1  UNL1        0.0989
     14 N         138.2399  139.8337  157.1383 N.ar    1  UNL1       -0.2407
     15 O         138.8510  137.5552  164.2609 O.2     1  UNL1       -0.2699
     16 C         138.5725  138.9966  163.9528 C.2     1  UNL1        0.2522
     17 N         138.3727  139.9774  165.0700 N.am    1  UNL1       -0.2967
     18 H         138.1899  140.9234  164.8678 H       1  UNL1        0.1501
     19 C         138.4512  139.5168  166.4953 C.3     1  UNL1        0.1166
     20 C         139.6817  139.7954  167.3069 C.ar    1  UNL1       -0.0024
     21 C         139.5576  140.1551  168.7578 C.ar    1  UNL1       -0.0003
     22 C         140.7880  140.4337  169.5692 C.ar    1  UNL1        0.0294
     23 C         142.1424  140.3527  168.9297 C.ar    1  UNL1        0.1401
     24 F         143.3729  140.6314  169.7412 F       1  UNL1       -0.2042
     25 C         142.2665  139.9931  167.4788 C.ar    1  UNL1        0.0294
     26 C         141.0361  139.7144  166.6674 C.ar    1  UNL1       -0.0003
@<TRIPOS>BOND
     1    15    16    2
     2    16    17   am
     3    17    19    1
     4    19    20    1
     5    20    21   ar
     6    21    22   ar
     7    22    23   ar
     8    23    24    1
     9    23    25   ar
    10    25    26   ar
    11    16     1    1
    12     1     2   ar
    13     2     3   ar
    14     3     4   ar
    15     4     9    1
    16     9    10   ar
    17    10    11   ar
    18    11    12   ar
    19    12    13   ar
    20    13    14   ar
    21     4     5   ar
    22     5     6   ar
    23     6     7    1
    24    26    20   ar
    25     6     1   ar
    26    14     9   ar
    27    17    18    1
    28     7     8    1
@<TRIPOS>MOLECULE
*****
 26 28 0 0 0
SMALL
GASTEIGER

@<TRIPOS>ATOM
      1 C         143.3785  138.7817  164.3091 C.ar    1  UNL1        0.1253
      2 C         144.4375  139.5177  163.5428 C.ar    1  UNL1        0.1098
      3 N         144.4067  139.5293  162.0432 N.ar    1  UNL1       -0.2234
      4 C         143.3169  138.8051  161.3098 C.ar    1  UNL1        0.1831
      5 N         142.2579  138.0692  162.0760 N.ar    1  UNL1       -0.1910
      6 C         142.2888  138.0575  163.5757 C.ar    1  UNL1        0.2289
      7 O         141.2299  137.3216  164.3419 O.3     1  UNL1       -0.4918
      8 H         140.5491  136.8692  163.8838 H       1  UNL1        0.2938
      9 C         143.2861  138.8168  159.8102 C.ar    1  UNL1        0.1171
     10 C         142.6432  137.6852  159.0644 C.ar    1  UNL1        0.0223
     11 C         142.6124  137.6969  157.5648 C.ar    1  UNL1        0.0032
     12 C         143.2245  138.8402  156.8109 C.ar    1  UNL1        0.0207
     13 C         143.8673  139.9718  157.5567 C.ar    1  UNL1        0.0989
     14 N         143.8981  139.9600  159.0564 N.ar    1  UNL1       -0.2407
     15 O         144.4749  138.0000  166.5310 O.2     1  UNL1       -0.2699
     16 C         143.4094  138.7701  165.8087 C.2     1  UNL1        0.2522
     17 N         142.3746  139.5284  166.5861 N.am    1  UNL1       -0.2967
     18 H         141.6753  140.0338  166.1120 H       1  UNL1        0.1501
     19 C         142.4054  139.5167  168.0857 C.3     1  UNL1        0.1166
     20 C         141.5910  140.5101  168.8604 C.ar    1  UNL1       -0.0024
     21 C         140.1989  140.1611  169.2965 C.ar    1  UNL1       -0.0003
     22 C         139.3845  141.1544  170.0711 C.ar    1  UNL1        0.0294
     23 C         139.9623  142.4967  170.4097 C.ar    1  UNL1        0.1401
     24 F         139.1478  143.4900  171.1843 F       1  UNL1       -0.2042
     25 C         141.3544  142.8456  169.9735 C.ar    1  UNL1        0.0294
     26 C         142.1687  141.8523  169.1989 C.ar    1  UNL1       -0.0003
@<TRIPOS>BOND
     1    15    16    2
     2    16    17   am
     3    17    19    1
     4    19    20    1
     5    20    21   ar
     6    21    22   ar
     7    22    23   ar
     8    23    24    1
     9    23    25   ar
    10    25    26   ar
    11    16     1    1
    12     1     2   ar
    13     2     3   ar
    14     3     4   ar
    15     4     9    1
    16     9    10   ar
    17    10    11   ar
    18    11    12   ar
    19    12    13   ar
    20    13    14   ar
    21     4     5   ar
    22     5     6   ar
    23     6     7    1
    24    26    20   ar
    25     6     1   ar
    26    14     9   ar
    27    17    18    1
    28     7     8    1
@<TRIPOS>MOLECULE
*****
 26 28 0 0 0
SMALL
GASTEIGER

@<TRIPOS>ATOM
      1 C         140.9187  145.1199  158.4016 C.ar    1  UNL1        0.1253
      2 C         140.3177  145.4713  159.7302 C.ar    1  UNL1        0.1098
      3 N         141.0188  145.0804  160.9974 N.ar    1  UNL1       -0.2234
      4 C         142.3208  144.3381  160.9359 C.ar    1  UNL1        0.1831
      5 N         142.9217  143.9867  159.6072 N.ar    1  UNL1       -0.1910
      6 C         142.2206  144.3776  158.3400 C.ar    1  UNL1        0.2289
      7 O         142.8216  144.0262  157.0114 O.3     1  UNL1       -0.4918
      8 H         143.6349  143.5625  156.9729 H       1  UNL1        0.2938
      9 C         143.0218  143.9472  162.2031 C.ar    1  UNL1        0.1171
     10 C         143.1988  144.9517  163.3029 C.ar    1  UNL1        0.0223
     11 C         143.8998  144.5608  164.5700 C.ar    1  UNL1        0.0032
     12 C         144.4239  143.1653  164.7374 C.ar    1  UNL1        0.0207
     13 C         144.2469  142.1608  163.6376 C.ar    1  UNL1        0.0989
     14 N         143.5459  142.5517  162.3704 N.ar    1  UNL1       -0.2407
     15 O         140.0167  144.4989  156.0456 O.2     1  UNL1       -0.2699
     16 C         140.2177  145.5108  157.1344 C.2     1  UNL1        0.2522
     17 N         139.7175  146.9137  156.9561 N.am    1  UNL1       -0.2967
     18 H         139.8494  147.5779  157.6707 H       1  UNL1        0.1501
     19 C         139.0165  147.3046  155.6889 C.3     1  UNL1        0.1166
     20 C         139.0667  148.7259  155.2117 C.ar    1  UNL1       -0.0024
     21 C         139.7071  149.0529  153.8954 C.ar    1  UNL1       -0.0003
     22 C         139.7573  150.4740  153.4182 C.ar    1  UNL1        0.0294
     23 C         139.1671  151.5682  154.2575 C.ar    1  UNL1        0.1401
     24 F         139.2173  152.9895  153.7803 F       1  UNL1       -0.2042
     25 C         138.5266  151.2413  155.5739 C.ar    1  UNL1        0.0294
     26 C         138.4764  149.8201  156.0510 C.ar    1  UNL1       -0.0003
@<TRIPOS>BOND
     1    15    16    2
     2    16    17   am
     3    17    19    1
     4    19    20    1
     5    20    21   ar
     6    21    22   ar
     7    22    23   ar
     8    23    24    1
     9    23    25   ar
    10    25    26   ar
    11    16     1    1
    12     1     2   ar
    13     2     3   ar
    14     3     4   ar
    15     4     9    1
    16     9    10   ar
    17    10    11   ar
    18    11    12   ar
    19    12    13   ar
    20    13    14   ar
    21     4     5   ar
    22     5     6   ar
    23     6     7    1
    24    26    20   ar
    25     6     1   ar
    26    14     9   ar
    27    17    18    1
    28     7     8    1
@<TRIPOS>MOLECULE
*****
 26 28 0 0 0
SMALL
GASTEIGER

@<TRIPOS>ATOM
      1 C         141.3918  144.8070  159.9852 C.ar    1  UNL1        0.1253
      2 C         142.4085  143.7633  160.3417 C.ar    1  UNL1        0.1098
      3 N         142.4726  143.2257  161.7405 N.ar    1  UNL1       -0.2234
      4 C         141.5200  143.7316  162.7829 C.ar    1  UNL1        0.1831
      5 N         140.5033  144.7753  162.4265 N.ar    1  UNL1       -0.1910
      6 C         140.4392  145.3130  161.0276 C.ar    1  UNL1        0.2289
      7 O         139.4225  146.3567  160.6711 O.3     1  UNL1       -0.4918
      8 H         138.8275  146.6727  161.3222 H       1  UNL1        0.2938
      9 C         141.5841  143.1939  164.1817 C.ar    1  UNL1        0.1171
     10 C         142.9125  143.0042  164.8522 C.ar    1  UNL1        0.0223
     11 C         142.9766  142.4665  166.2510 C.ar    1  UNL1        0.0032
     12 C         141.7123  142.1185  166.9795 C.ar    1  UNL1        0.0207
     13 C         140.3840  142.3083  166.3090 C.ar    1  UNL1        0.0989
     14 N         140.3199  142.8460  164.9102 N.ar    1  UNL1       -0.2407
     15 O         142.5260  146.0182  157.9861 O.2     1  UNL1       -0.2699
     16 C         141.3277  145.3447  158.5864 C.2     1  UNL1        0.2522
     17 N         140.0652  145.2089  157.7878 N.am    1  UNL1       -0.2967
     18 H         139.2787  144.7668  158.1818 H       1  UNL1        0.1501
     19 C         140.0011  145.7466  156.3890 C.3     1  UNL1        0.1166
     20 C         139.5392  147.1530  156.1465 C.ar    1  UNL1       -0.0024
     21 C         138.8181  147.9025  157.2273 C.ar    1  UNL1       -0.0003
     22 C         138.3563  149.3088  156.9848 C.ar    1  UNL1        0.0294
     23 C         138.6156  149.9657  155.6614 C.ar    1  UNL1        0.1401
     24 F         138.1537  151.3721  155.4190 F       1  UNL1       -0.2042
     25 C         139.3366  149.2162  154.5806 C.ar    1  UNL1        0.0294
     26 C         139.7984  147.8098  154.8231 C.ar    1  UNL1       -0.0003
@<TRIPOS>BOND
     1    15    16    2
     2    16    17   am
     3    17    19    1
     4    19    20    1
     5    20    21   ar
     6    21    22   ar
     7    22    23   ar
     8    23    24    1
     9    23    25   ar
    10    25    26   ar
    11    16     1    1
    12     1     2   ar
    13     2     3   ar
    14     3     4   ar
    15     4     9    1
    16     9    10   ar
    17    10    11   ar
    18    11    12   ar
    19    12    13   ar
    20    13    14   ar
    21     4     5   ar
    22     5     6   ar
    23     6     7    1
    24    26    20   ar
    25     6     1   ar
    26    14     9   ar
    27    17    18    1
    28     7     8    1
