@<TRIPOS>MOLECULE
*****
 29 31 0 0 0
SMALL
GASTEIGER

@<TRIPOS>ATOM
      1 N         140.8329  140.5132  167.5198 N.ar    1  UNL1       -0.2729
      2 C         140.3464  140.4802  168.9383 C.ar    1  UNL1        0.0860
      3 C         141.1660  139.8035  169.9968 C.ar    1  UNL1        0.0561
      4 C         142.4721  139.1598  169.6367 C.ar    1  UNL1        0.1453
      5 C         142.9585  139.1927  168.2182 C.ar    1  UNL1        0.0980
      6 C         142.1390  139.8694  167.1598 C.ar    1  UNL1        0.2679
      7 O         142.6255  139.9024  165.7412 O.2     1  UNL1       -0.2665
      8 C         138.3741  142.5433  164.3444 C.ar    1  UNL1        0.1387
      9 C         139.2851  143.3525  165.2192 C.ar    1  UNL1        0.0384
     10 C         140.1047  142.6758  166.2776 C.ar    1  UNL1        0.0207
     11 C         140.0133  141.1899  166.4613 C.ar    1  UNL1        0.0671
     12 C         139.1022  140.3808  165.5866 C.ar    1  UNL1        0.0207
     13 C         138.2826  141.0575  164.5282 C.ar    1  UNL1        0.0384
     14 O         137.5545  143.2200  163.2860 O.3     1  UNL1       -0.4740
     15 C         137.9886  143.1642  161.8513 C.3     1  UNL1        0.2226
     16 C         139.4332  142.9440  161.5128 C.3     1  UNL1        0.1200
     17 N         140.4198  144.0628  161.6717 N.3     1  UNL1       -0.2696
     18 C         140.2815  145.0762  159.2834 C.3     1  UNL1        0.0188
     19 C         140.3477  145.2598  160.7707 C.3     1  UNL1        0.0722
     20 C         141.4783  143.9844  162.7315 C.3     1  UNL1        0.0722
     21 C         142.8713  144.4564  162.4366 C.3     1  UNL1        0.0188
     22 O         143.2916  138.4831  170.6952 O.3     1  UNL1       -0.4704
     23 C         143.7196  137.0568  170.5148 C.3     1  UNL1        0.2320
     24 C         144.6656  136.4280  171.4944 C.ar    1  UNL1        0.0212
     25 C         145.6564  137.2789  172.2322 C.ar    1  UNL1       -0.0007
     26 C         146.6024  136.6501  173.2119 C.ar    1  UNL1       -0.0002
     27 C         146.5576  135.1704  173.4537 C.ar    1  UNL1       -0.0000
     28 C         145.5669  134.3195  172.7159 C.ar    1  UNL1       -0.0002
     29 C         144.6209  134.9483  171.7362 C.ar    1  UNL1       -0.0007
@<TRIPOS>BOND
     1    18    19    1
     2    19    17    1
     3    17    20    1
     4    20    21    1
     5    17    16    1
     6    16    15    1
     7    15    14    1
     8    14     8    1
     9     8     9   ar
    10     9    10   ar
    11    10    11   ar
    12    11     1    1
    13     1     2   ar
    14     2     3   ar
    15     3     4   ar
    16     4    22    1
    17    22    23    1
    18    23    24    1
    19    24    25   ar
    20    25    26   ar
    21    26    27   ar
    22    27    28   ar
    23    28    29   ar
    24     4     5   ar
    25     5     6   ar
    26     6     7    2
    27    11    12   ar
    28    12    13   ar
    29    13     8   ar
    30     6     1   ar
    31    29    24   ar
@<TRIPOS>MOLECULE
*****
 29 31 0 0 0
SMALL
GASTEIGER

@<TRIPOS>ATOM
      1 N         138.9157  141.1469  163.6586 N.ar    1  UNL1       -0.2729
      2 C         139.5262  140.3065  162.5766 C.ar    1  UNL1        0.0860
      3 C         139.3541  140.6949  161.1381 C.ar    1  UNL1        0.0561
      4 C         138.5715  141.9238  160.7815 C.ar    1  UNL1        0.1453
      5 C         137.9609  142.7643  161.8636 C.ar    1  UNL1        0.0980
      6 C         138.1330  142.3758  163.3021 C.ar    1  UNL1        0.2679
      7 O         137.5224  143.2163  164.3842 O.2     1  UNL1       -0.2665
      8 C         139.4320  139.9815  167.9743 C.ar    1  UNL1        0.1387
      9 C         138.4442  139.2514  167.1133 C.ar    1  UNL1        0.0384
     10 C         138.2721  139.6399  165.6748 C.ar    1  UNL1        0.0207
     11 C         139.0878  140.7584  165.0972 C.ar    1  UNL1        0.0671
     12 C         140.0755  141.4884  165.9582 C.ar    1  UNL1        0.0207
     13 C         140.2476  141.0999  167.3968 C.ar    1  UNL1        0.0384
     14 O         139.6041  139.5930  169.4129 O.3     1  UNL1       -0.4740
     15 C         140.9518  139.7000  170.0626 C.3     1  UNL1        0.2226
     16 C         141.2012  140.7506  171.1037 C.3     1  UNL1        0.1200
     17 N         141.3200  142.1911  170.7022 N.3     1  UNL1       -0.2696
     18 C         140.1953  144.4250  169.9991 C.3     1  UNL1        0.0188
     19 C         140.0855  143.0242  170.5241 C.3     1  UNL1        0.0722
     20 C         142.6733  142.7982  170.4788 C.3     1  UNL1        0.0722
     21 C         143.5280  142.3271  169.3396 C.3     1  UNL1        0.0188
     22 O         138.3994  142.3123  159.3430 O.3     1  UNL1       -0.4704
     23 C         137.9425  141.2942  158.3406 C.3     1  UNL1        0.2320
     24 C         137.2905  141.7379  157.0647 C.ar    1  UNL1        0.0212
     25 C         136.3333  140.8266  156.3552 C.ar    1  UNL1       -0.0007
     26 C         135.6812  141.2703  155.0793 C.ar    1  UNL1       -0.0002
     27 C         135.9864  142.6254  154.5129 C.ar    1  UNL1       -0.0000
     28 C         136.9435  143.5366  155.2224 C.ar    1  UNL1       -0.0002
     29 C         137.5956  143.0929  156.4983 C.ar    1  UNL1       -0.0007
@<TRIPOS>BOND
     1    18    19    1
     2    19    17    1
     3    17    20    1
     4    20    21    1
     5    17    16    1
     6    16    15    1
     7    15    14    1
     8    14     8    1
     9     8     9   ar
    10     9    10   ar
    11    10    11   ar
    12    11     1    1
    13     1     2   ar
    14     2     3   ar
    15     3     4   ar
    16     4    22    1
    17    22    23    1
    18    23    24    1
    19    24    25   ar
    20    25    26   ar
    21    26    27   ar
    22    27    28   ar
    23    28    29   ar
    24     4     5   ar
    25     5     6   ar
    26     6     7    2
    27    11    12   ar
    28    12    13   ar
    29    13     8   ar
    30     6     1   ar
    31    29    24   ar
@<TRIPOS>MOLECULE
*****
 29 31 0 0 0
SMALL
GASTEIGER

@<TRIPOS>ATOM
      1 N         140.8089  140.4044  167.5518 N.ar    1  UNL1       -0.2729
      2 C         140.3225  140.3553  168.9699 C.ar    1  UNL1        0.0860
      3 C         141.1588  139.6976  170.0273 C.ar    1  UNL1        0.0561
      4 C         142.4814  139.0890  169.6666 C.ar    1  UNL1        0.1453
      5 C         142.9678  139.1382  168.2485 C.ar    1  UNL1        0.0980
      6 C         142.1315  139.7959  167.1912 C.ar    1  UNL1        0.2679
      7 O         142.6180  139.8450  165.7730 O.2     1  UNL1       -0.2665
      8 C         138.3000  142.3775  164.3797 C.ar    1  UNL1        0.1387
      9 C         139.2518  143.1965  165.2003 C.ar    1  UNL1        0.0384
     10 C         140.0881  142.5388  166.2576 C.ar    1  UNL1        0.0207
     11 C         139.9726  141.0621  166.4945 C.ar    1  UNL1        0.0671
     12 C         139.0208  140.2432  165.6739 C.ar    1  UNL1        0.0207
     13 C         138.1845  140.9009  164.6165 C.ar    1  UNL1        0.0384
     14 O         137.4637  143.0352  163.3223 O.3     1  UNL1       -0.4740
     15 C         137.8667  142.9403  161.8806 C.3     1  UNL1        0.2226
     16 C         139.3130  143.0475  161.4975 C.3     1  UNL1        0.1200
     17 N         139.7287  142.8375  160.0716 N.3     1  UNL1       -0.2696
     18 C         140.3211  140.3145  160.2543 C.3     1  UNL1        0.0188
     19 C         139.7264  141.4568  159.4853 C.3     1  UNL1        0.0722
     20 C         140.1466  144.0081  159.2320 C.3     1  UNL1        0.0722
     21 C         141.2696  143.8627  158.2482 C.3     1  UNL1        0.0188
     22 O         143.3177  138.4313  170.7240 O.3     1  UNL1       -0.4704
     23 C         143.7236  136.9952  170.5736 C.3     1  UNL1        0.2320
     24 C         144.6760  136.3783  171.5546 C.ar    1  UNL1        0.0212
     25 C         144.6432  134.8993  171.8032 C.ar    1  UNL1       -0.0007
     26 C         145.5956  134.2824  172.7842 C.ar    1  UNL1       -0.0002
     27 C         146.5807  135.1445  173.5167 C.ar    1  UNL1       -0.0000
     28 C         146.6134  136.6233  173.2682 C.ar    1  UNL1       -0.0002
     29 C         145.6610  137.2402  172.2871 C.ar    1  UNL1       -0.0007
@<TRIPOS>BOND
     1    18    19    1
     2    19    17    1
     3    17    20    1
     4    20    21    1
     5    17    16    1
     6    16    15    1
     7    15    14    1
     8    14     8    1
     9     8     9   ar
    10     9    10   ar
    11    10    11   ar
    12    11     1    1
    13     1     2   ar
    14     2     3   ar
    15     3     4   ar
    16     4    22    1
    17    22    23    1
    18    23    24    1
    19    24    25   ar
    20    25    26   ar
    21    26    27   ar
    22    27    28   ar
    23    28    29   ar
    24     4     5   ar
    25     5     6   ar
    26     6     7    2
    27    11    12   ar
    28    12    13   ar
    29    13     8   ar
    30     6     1   ar
    31    29    24   ar
@<TRIPOS>MOLECULE
*****
 29 31 0 0 0
SMALL
GASTEIGER

@<TRIPOS>ATOM
      1 N         140.8834  138.4689  161.1462 N.ar    1  UNL1       -0.2729
      2 C         140.0779  138.6258  159.8906 C.ar    1  UNL1        0.0860
      3 C         140.7143  138.3772  158.5552 C.ar    1  UNL1        0.0561
      4 C         142.1562  137.9718  158.4754 C.ar    1  UNL1        0.1453
      5 C         142.9617  137.8149  159.7310 C.ar    1  UNL1        0.0980
      6 C         142.3253  138.0635  161.0663 C.ar    1  UNL1        0.2679
      7 O         143.1310  137.9066  162.3219 O.2     1  UNL1       -0.2665
      8 C         138.9743  139.2147  165.1523 C.ar    1  UNL1        0.1387
      9 C         139.3218  140.3696  164.2605 C.ar    1  UNL1        0.0384
     10 C         139.9581  140.1210  162.9251 C.ar    1  UNL1        0.0207
     11 C         140.2471  138.7175  162.4816 C.ar    1  UNL1        0.0671
     12 C         139.8996  137.5626  163.3734 C.ar    1  UNL1        0.0207
     13 C         139.2632  137.8112  164.7088 C.ar    1  UNL1        0.0384
     14 O         138.3379  139.4633  166.4877 O.3     1  UNL1       -0.4740
     15 C         139.1961  139.6915  167.6966 C.3     1  UNL1        0.2226
     16 C         140.5452  140.3303  167.5490 C.3     1  UNL1        0.1200
     17 N         141.7542  139.6769  168.1501 N.3     1  UNL1       -0.2696
     18 C         142.8871  140.4096  170.3704 C.3     1  UNL1        0.0188
     19 C         141.8840  139.5665  169.6404 C.3     1  UNL1        0.0722
     20 C         142.8334  139.1340  167.2610 C.3     1  UNL1        0.0722
     21 C         142.6368  139.1059  165.7742 C.3     1  UNL1        0.0188
     22 O         142.7925  137.7232  157.1400 O.3     1  UNL1       -0.4704
     23 C         142.1084  136.8446  156.1351 C.3     1  UNL1        0.2320
     24 C         142.2693  135.3550  156.2084 C.ar    1  UNL1        0.0212
     25 C         141.4258  134.4661  155.3433 C.ar    1  UNL1       -0.0007
     26 C         141.5867  132.9766  155.4165 C.ar    1  UNL1       -0.0002
     27 C         142.5912  132.3760  156.3549 C.ar    1  UNL1       -0.0000
     28 C         143.4347  133.2649  157.2199 C.ar    1  UNL1       -0.0002
     29 C         143.2737  134.7544  157.1466 C.ar    1  UNL1       -0.0007
@<TRIPOS>BOND
     1    18    19    1
     2    19    17    1
     3    17    20    1
     4    20    21    1
     5    17    16    1
     6    16    15    1
     7    15    14    1
     8    14     8    1
     9     8     9   ar
    10     9    10   ar
    11    10    11   ar
    12    11     1    1
    13     1     2   ar
    14     2     3   ar
    15     3     4   ar
    16     4    22    1
    17    22    23    1
    18    23    24    1
    19    24    25   ar
    20    25    26   ar
    21    26    27   ar
    22    27    28   ar
    23    28    29   ar
    24     4     5   ar
    25     5     6   ar
    26     6     7    2
    27    11    12   ar
    28    12    13   ar
    29    13     8   ar
    30     6     1   ar
    31    29    24   ar
@<TRIPOS>MOLECULE
*****
 29 31 0 0 0
SMALL
GASTEIGER

@<TRIPOS>ATOM
      1 N         140.9715  138.4858  161.0087 N.ar    1  UNL1       -0.2729
      2 C         140.0607  138.6711  159.8314 C.ar    1  UNL1        0.0860
      3 C         140.5672  138.4129  158.4434 C.ar    1  UNL1        0.0561
      4 C         141.9845  137.9692  158.2326 C.ar    1  UNL1        0.1453
      5 C         142.8953  137.7838  159.4099 C.ar    1  UNL1        0.0980
      6 C         142.3888  138.0421  160.7980 C.ar    1  UNL1        0.2679
      7 O         143.2996  137.8567  161.9753 O.2     1  UNL1       -0.2665
      8 C         139.4520  139.2606  165.1730 C.ar    1  UNL1        0.1387
      9 C         139.3625  137.8831  164.5861 C.ar    1  UNL1        0.0384
     10 C         139.8690  137.6248  163.1980 C.ar    1  UNL1        0.0207
     11 C         140.4650  138.7440  162.3968 C.ar    1  UNL1        0.0671
     12 C         140.5546  140.1215  162.9836 C.ar    1  UNL1        0.0207
     13 C         140.0481  140.3798  164.3717 C.ar    1  UNL1        0.0384
     14 O         138.9455  139.5189  166.5610 O.3     1  UNL1       -0.4740
     15 C         139.6638  140.4872  167.4534 C.3     1  UNL1        0.2226
     16 C         139.8123  140.1907  168.9163 C.3     1  UNL1        0.1200
     17 N         140.7366  141.0185  169.7593 N.3     1  UNL1       -0.2696
     18 C         140.4401  143.5953  169.6110 C.3     1  UNL1        0.0188
     19 C         140.2548  142.3071  170.3569 C.3     1  UNL1        0.0722
     20 C         142.1427  140.5574  170.0047 C.3     1  UNL1        0.0722
     21 C         142.4746  139.0959  169.9421 C.3     1  UNL1        0.0188
     22 O         142.4910  137.7109  156.8445 O.3     1  UNL1       -0.4704
     23 C         141.8140  136.6919  155.9766 C.3     1  UNL1        0.2320
     24 C         142.1493  135.2375  156.1264 C.ar    1  UNL1        0.0212
     25 C         143.2268  134.8105  157.0786 C.ar    1  UNL1       -0.0007
     26 C         143.5622  133.3562  157.2284 C.ar    1  UNL1       -0.0002
     27 C         142.8200  132.3289  156.4260 C.ar    1  UNL1       -0.0000
     28 C         141.7425  132.7559  155.4738 C.ar    1  UNL1       -0.0002
     29 C         141.4072  134.2103  155.3240 C.ar    1  UNL1       -0.0007
@<TRIPOS>BOND
     1    18    19    1
     2    19    17    1
     3    17    20    1
     4    20    21    1
     5    17    16    1
     6    16    15    1
     7    15    14    1
     8    14     8    1
     9     8     9   ar
    10     9    10   ar
    11    10    11   ar
    12    11     1    1
    13     1     2   ar
    14     2     3   ar
    15     3     4   ar
    16     4    22    1
    17    22    23    1
    18    23    24    1
    19    24    25   ar
    20    25    26   ar
    21    26    27   ar
    22    27    28   ar
    23    28    29   ar
    24     4     5   ar
    25     5     6   ar
    26     6     7    2
    27    11    12   ar
    28    12    13   ar
    29    13     8   ar
    30     6     1   ar
    31    29    24   ar
@<TRIPOS>MOLECULE
*****
 29 31 0 0 0
SMALL
GASTEIGER

@<TRIPOS>ATOM
      1 N         140.3854  138.4678  158.7104 N.ar    1  UNL1       -0.2729
      2 C         139.7627  137.9474  157.4489 C.ar    1  UNL1        0.0860
      3 C         140.5998  137.2040  156.4506 C.ar    1  UNL1        0.0561
      4 C         142.0595  136.9810  156.7138 C.ar    1  UNL1        0.1453
      5 C         142.6822  137.5014  157.9752 C.ar    1  UNL1        0.0980
      6 C         141.8451  138.2448  158.9736 C.ar    1  UNL1        0.2679
      7 O         142.4679  138.7652  160.2351 O.2     1  UNL1       -0.2665
      8 C         137.8741  140.6979  161.7055 C.ar    1  UNL1        0.1387
      9 C         138.6066  141.4490  160.6335 C.ar    1  UNL1        0.0384
     10 C         139.4437  140.7056  159.6351 C.ar    1  UNL1        0.0207
     11 C         139.5483  139.2111  159.7088 C.ar    1  UNL1        0.0671
     12 C         138.8158  138.4600  160.7807 C.ar    1  UNL1        0.0207
     13 C         137.9787  139.2034  161.7791 C.ar    1  UNL1        0.0384
     14 O         137.0370  141.4412  162.7038 O.3     1  UNL1       -0.4740
     15 C         137.6236  142.5928  163.4651 C.3     1  UNL1        0.2226
     16 C         138.3588  142.3464  164.7491 C.3     1  UNL1        0.1200
     17 N         139.0108  141.0184  164.9971 N.3     1  UNL1       -0.2696
     18 C         138.4781  139.1635  166.7365 C.3     1  UNL1        0.0188
     19 C         138.1829  139.8463  165.4340 C.3     1  UNL1        0.0722
     20 C         140.4906  140.8625  164.8081 C.3     1  UNL1        0.0722
     21 C         141.0224  140.1776  163.5840 C.3     1  UNL1        0.0188
     22 O         142.8966  136.2377  155.7154 O.3     1  UNL1       -0.4704
     23 C         142.6030  134.7979  155.4144 C.3     1  UNL1        0.2320
     24 C         143.4451  133.7171  156.0250 C.ar    1  UNL1        0.0212
     25 C         143.9958  133.8877  157.4098 C.ar    1  UNL1       -0.0007
     26 C         144.8380  132.8069  158.0204 C.ar    1  UNL1       -0.0002
     27 C         145.1294  131.5556  157.2461 C.ar    1  UNL1       -0.0000
     28 C         144.5786  131.3851  155.8613 C.ar    1  UNL1       -0.0002
     29 C         143.7365  132.4659  155.2508 C.ar    1  UNL1       -0.0007
@<TRIPOS>BOND
     1    18    19    1
     2    19    17    1
     3    17    20    1
     4    20    21    1
     5    17    16    1
     6    16    15    1
     7    15    14    1
     8    14     8    1
     9     8     9   ar
    10     9    10   ar
    11    10    11   ar
    12    11     1    1
    13     1     2   ar
    14     2     3   ar
    15     3     4   ar
    16     4    22    1
    17    22    23    1
    18    23    24    1
    19    24    25   ar
    20    25    26   ar
    21    26    27   ar
    22    27    28   ar
    23    28    29   ar
    24     4     5   ar
    25     5     6   ar
    26     6     7    2
    27    11    12   ar
    28    12    13   ar
    29    13     8   ar
    30     6     1   ar
    31    29    24   ar
@<TRIPOS>MOLECULE
*****
 29 31 0 0 0
SMALL
GASTEIGER

@<TRIPOS>ATOM
      1 N         139.9011  138.7689  161.5119 N.ar    1  UNL1       -0.2729
      2 C         139.8330  137.6519  162.5106 C.ar    1  UNL1        0.0860
      3 C         139.2421  137.8943  163.8678 C.ar    1  UNL1        0.0561
      4 C         138.7192  139.2537  164.2263 C.ar    1  UNL1        0.1453
      5 C         138.7873  140.3708  163.2275 C.ar    1  UNL1        0.0980
      6 C         139.3782  140.1284  161.8703 C.ar    1  UNL1        0.2679
      7 O         139.4463  141.2455  160.8715 O.2     1  UNL1       -0.2665
      8 C         141.6738  138.0417  157.4402 C.ar    1  UNL1        0.1387
      9 C         142.5703  138.1781  158.6350 C.ar    1  UNL1        0.0384
     10 C         141.9794  138.4205  159.9922 C.ar    1  UNL1        0.0207
     11 C         140.4920  138.5265  160.1546 C.ar    1  UNL1        0.0671
     12 C         139.5955  138.3901  158.9598 C.ar    1  UNL1        0.0207
     13 C         140.1864  138.1477  157.6026 C.ar    1  UNL1        0.0384
     14 O         142.2647  137.7993  156.0830 O.3     1  UNL1       -0.4740
     15 C         143.6762  137.3077  155.9564 C.3     1  UNL1        0.2226
     16 C         143.9437  135.8559  155.6904 C.3     1  UNL1        0.1200
     17 N         143.0786  134.8058  156.3222 N.3     1  UNL1       -0.2696
     18 C         144.4846  133.1241  157.7167 C.3     1  UNL1        0.0188
     19 C         143.4604  134.2178  157.6482 C.3     1  UNL1        0.0722
     20 C         141.8318  134.3439  155.6279 C.3     1  UNL1        0.0722
     21 C         141.8044  134.2301  154.1324 C.3     1  UNL1        0.0188
     22 O         138.1283  139.4961  165.5835 O.3     1  UNL1       -0.4704
     23 C         138.9436  139.2321  166.8146 C.3     1  UNL1        0.2320
     24 C         139.4575  140.3786  167.6340 C.ar    1  UNL1        0.0212
     25 C         140.1276  141.5401  166.9617 C.ar    1  UNL1       -0.0007
     26 C         140.6414  142.6866  167.7811 C.ar    1  UNL1       -0.0002
     27 C         140.4851  142.6716  169.2729 C.ar    1  UNL1       -0.0000
     28 C         139.8150  141.5102  169.9452 C.ar    1  UNL1       -0.0002
     29 C         139.3012  140.3637  169.1257 C.ar    1  UNL1       -0.0007
@<TRIPOS>BOND
     1    18    19    1
     2    19    17    1
     3    17    20    1
     4    20    21    1
     5    17    16    1
     6    16    15    1
     7    15    14    1
     8    14     8    1
     9     8     9   ar
    10     9    10   ar
    11    10    11   ar
    12    11     1    1
    13     1     2   ar
    14     2     3   ar
    15     3     4   ar
    16     4    22    1
    17    22    23    1
    18    23    24    1
    19    24    25   ar
    20    25    26   ar
    21    26    27   ar
    22    27    28   ar
    23    28    29   ar
    24     4     5   ar
    25     5     6   ar
    26     6     7    2
    27    11    12   ar
    28    12    13   ar
    29    13     8   ar
    30     6     1   ar
    31    29    24   ar
@<TRIPOS>MOLECULE
*****
 29 31 0 0 0
SMALL
GASTEIGER

@<TRIPOS>ATOM
      1 N         139.6357  143.6875  160.1097 N.ar    1  UNL1       -0.2729
      2 C         139.4007  142.9176  158.8440 C.ar    1  UNL1        0.0860
      3 C         139.6746  143.5572  157.5152 C.ar    1  UNL1        0.0561
      4 C         140.1836  144.9668  157.4521 C.ar    1  UNL1        0.1453
      5 C         140.4187  145.7367  158.7177 C.ar    1  UNL1        0.0980
      6 C         140.1447  145.0970  160.0466 C.ar    1  UNL1        0.2679
      7 O         140.3798  145.8670  161.3123 O.2     1  UNL1       -0.2665
      8 C         138.8138  141.7685  164.0962 C.ar    1  UNL1        0.1387
      9 C         137.6792  142.3000  163.2715 C.ar    1  UNL1        0.0384
     10 C         137.9532  142.9396  161.9427 C.ar    1  UNL1        0.0207
     11 C         139.3618  143.0478  161.4385 C.ar    1  UNL1        0.0671
     12 C         140.4964  142.5164  162.2632 C.ar    1  UNL1        0.0207
     13 C         140.2224  141.8767  163.5921 C.ar    1  UNL1        0.0384
     14 O         138.5399  141.1289  165.4250 O.3     1  UNL1       -0.4740
     15 C         139.6383  141.0063  166.4391 C.3     1  UNL1        0.2226
     16 C         140.2200  139.6604  166.7557 C.3     1  UNL1        0.1200
     17 N         141.1558  139.0009  165.7863 N.3     1  UNL1       -0.2696
     18 C         143.6176  138.2920  166.2184 C.3     1  UNL1        0.0188
     19 C         142.6182  139.3337  165.8111 C.3     1  UNL1        0.0722
     20 C         140.6291  138.0087  164.7923 C.3     1  UNL1        0.0722
     21 C         139.1629  137.6946  164.7509 C.3     1  UNL1        0.0188
     22 O         140.4576  145.6064  156.1232 O.3     1  UNL1       -0.4704
     23 C         139.3397  146.2450  155.3535 C.3     1  UNL1        0.2320
     24 C         139.2063  147.7388  155.3248 C.ar    1  UNL1        0.0212
     25 C         139.7057  148.5137  154.1415 C.ar    1  UNL1       -0.0007
     26 C         139.5723  150.0075  154.1128 C.ar    1  UNL1       -0.0002
     27 C         138.9396  150.7263  155.2674 C.ar    1  UNL1       -0.0000
     28 C         138.4403  149.9514  156.4506 C.ar    1  UNL1       -0.0002
     29 C         138.5736  148.4576  156.4793 C.ar    1  UNL1       -0.0007
@<TRIPOS>BOND
     1    18    19    1
     2    19    17    1
     3    17    20    1
     4    20    21    1
     5    17    16    1
     6    16    15    1
     7    15    14    1
     8    14     8    1
     9     8     9   ar
    10     9    10   ar
    11    10    11   ar
    12    11     1    1
    13     1     2   ar
    14     2     3   ar
    15     3     4   ar
    16     4    22    1
    17    22    23    1
    18    23    24    1
    19    24    25   ar
    20    25    26   ar
    21    26    27   ar
    22    27    28   ar
    23    28    29   ar
    24     4     5   ar
    25     5     6   ar
    26     6     7    2
    27    11    12   ar
    28    12    13   ar
    29    13     8   ar
    30     6     1   ar
    31    29    24   ar
@<TRIPOS>MOLECULE
*****
 29 31 0 0 0
SMALL
GASTEIGER

@<TRIPOS>ATOM
      1 N         142.3168  138.2249  162.2742 N.ar    1  UNL1       -0.2729
      2 C         141.4644  137.4826  163.2602 C.ar    1  UNL1        0.0860
      3 C         141.7796  137.5509  164.7251 C.ar    1  UNL1        0.0561
      4 C         142.9472  138.3616  165.2040 C.ar    1  UNL1        0.1453
      5 C         143.7996  139.1039  164.2180 C.ar    1  UNL1        0.0980
      6 C         143.4844  139.0356  162.7531 C.ar    1  UNL1        0.2679
      7 O         144.3369  139.7780  161.7671 O.2     1  UNL1       -0.2665
      8 C         141.3712  138.0199  157.8794 C.ar    1  UNL1        0.1387
      9 C         142.6847  137.5051  158.3888 C.ar    1  UNL1        0.0384
     10 C         142.9999  137.5734  159.8537 C.ar    1  UNL1        0.0207
     11 C         142.0016  138.1566  160.8092 C.ar    1  UNL1        0.0671
     12 C         140.6881  138.6715  160.2999 C.ar    1  UNL1        0.0207
     13 C         140.3729  138.6032  158.8350 C.ar    1  UNL1        0.0384
     14 O         141.0560  137.9516  156.4145 O.3     1  UNL1       -0.4740
     15 C         140.7525  136.6299  155.7735 C.3     1  UNL1        0.2226
     16 C         141.8391  135.8686  155.0737 C.3     1  UNL1        0.1200
     17 N         142.2653  134.5258  155.5887 N.3     1  UNL1       -0.2696
     18 C         143.5926  133.9854  157.7557 C.3     1  UNL1        0.0188
     19 C         143.5731  134.3791  156.3085 C.3     1  UNL1        0.0722
     20 C         141.3837  133.3296  155.3838 C.3     1  UNL1        0.0722
     21 C         141.9936  131.9743  155.1806 C.3     1  UNL1        0.0188
     22 O         143.2624  138.4299  166.6689 O.3     1  UNL1       -0.4704
     23 C         142.6862  139.5305  167.5095 C.3     1  UNL1        0.2320
     24 C         141.7687  140.5438  166.8921 C.ar    1  UNL1        0.0212
     25 C         140.3023  140.2520  166.7701 C.ar    1  UNL1       -0.0007
     26 C         139.3848  141.2654  166.1527 C.ar    1  UNL1       -0.0002
     27 C         139.9336  142.5706  165.6573 C.ar    1  UNL1       -0.0000
     28 C         141.3998  142.8624  165.7794 C.ar    1  UNL1       -0.0002
     29 C         142.3174  141.8490  166.3968 C.ar    1  UNL1       -0.0007
@<TRIPOS>BOND
     1    18    19    1
     2    19    17    1
     3    17    20    1
     4    20    21    1
     5    17    16    1
     6    16    15    1
     7    15    14    1
     8    14     8    1
     9     8     9   ar
    10     9    10   ar
    11    10    11   ar
    12    11     1    1
    13     1     2   ar
    14     2     3   ar
    15     3     4   ar
    16     4    22    1
    17    22    23    1
    18    23    24    1
    19    24    25   ar
    20    25    26   ar
    21    26    27   ar
    22    27    28   ar
    23    28    29   ar
    24     4     5   ar
    25     5     6   ar
    26     6     7    2
    27    11    12   ar
    28    12    13   ar
    29    13     8   ar
    30     6     1   ar
    31    29    24   ar
