@<TRIPOS>MOLECULE
*****
 34 37 0 0 0
SMALL
GASTEIGER

@<TRIPOS>ATOM
      1 N         140.6698  139.7375  167.5681 N.pl3   1  UNL1       -0.2560
      2 H         141.2834  139.0156  167.8356 H       1  UNL1        0.2592
      3 C         141.1453  140.8244  166.6500 C.3     1  UNL1        0.2144
      4 C         140.2572  142.0292  166.5530 C.3     1  UNL1        0.0490
      5 C         140.4504  143.2699  165.7325 C.3     1  UNL1        0.0057
      6 C         141.5796  143.6122  164.8062 C.3     1  UNL1        0.0216
      7 C         142.7944  142.7983  164.4719 C.3     1  UNL1        0.0940
      8 N         143.1800  141.4411  164.9811 N.am    1  UNL1       -0.2686
      9 C         142.4461  140.5626  165.9505 C.2     1  UNL1        0.2622
     10 O         143.0993  139.2486  166.2614 O.2     1  UNL1       -0.2712
     11 C         144.4701  140.8894  164.4508 C.3     1  UNL1        0.1794
     12 C         144.6810  140.7655  162.9709 C.2     1  UNL1        0.2459
     13 O         145.5986  141.7170  162.2619 O.2     1  UNL1       -0.2730
     14 N         143.9742  139.6902  162.1999 N.am    1  UNL1       -0.2781
     15 C         143.0318  138.6717  162.7692 C.3     1  UNL1        0.0935
     16 C         142.5609  137.7966  161.6455 C.3     1  UNL1        0.0233
     17 C         143.2125  138.2745  160.3817 C.3     1  UNL1        0.0233
     18 C         144.0860  139.4448  160.7244 C.3     1  UNL1        0.0935
     19 N         138.1280  139.3813  167.1655 N.pl3   1  UNL1       -0.0709
     20 C         139.2594  139.7507  168.0784 C.cat   1  UNL1        0.4016
     21 C         138.6387  139.7590  159.3412 C.3     1  UNL1        0.0725
     22 C         138.6526  139.4235  160.8031 C.ar    1  UNL1        0.1233
     23 C         138.1899  140.3153  161.9169 C.ar    1  UNL1        0.0361
     24 C         138.3829  139.5801  163.2101 C.ar    1  UNL1        0.0402
     25 C         138.1039  139.9626  164.6334 C.ar    1  UNL1        0.0402
     26 C         138.4070  138.9989  165.7421 C.ar    1  UNL1        0.1590
     27 C         138.9890  137.6527  165.4276 C.ar    1  UNL1        0.0402
     28 C         139.2680  137.2702  164.0043 C.ar    1  UNL1        0.0405
     29 C         138.9650  138.2339  162.8955 C.ar    1  UNL1        0.1450
     30 O         139.1316  138.1371  161.4080 O.2     1  UNL1       -0.4577
     31 N         138.9804  140.1331  169.5018 N.pl3   1  UNL1       -0.1773
     32 H         138.0554  140.1345  169.8389 H       1  UNL1        0.2780
     33 C         140.1107  140.5134  170.4116 C.1     1  UNL1        0.2552
     34 N         141.2411  140.8937  171.3213 N.1     1  UNL1       -0.1538
@<TRIPOS>BOND
     1    21    22    1
     2    22    23   ar
     3    23    24   ar
     4    24    25   ar
     5    25    26   ar
     6    26    19    1
     7    19    20    2
     8    20    31    1
     9    31    33    1
    10    33    34    3
    11    20     1    1
    12     3     1    1
    13     3     4    1
    14     4     5    1
    15     5     6    1
    16     6     7    1
    17     7     8    1
    18     8    11    1
    19    11    12    1
    20    12    13    2
    21    12    14   am
    22    14    15    1
    23    15    16    1
    24    16    17    1
    25    17    18    1
    26     8     9   am
    27     9    10    2
    28    26    27   ar
    29    27    28   ar
    30    28    29   ar
    31    29    30   ar
    32    30    22   ar
    33    29    24   ar
    34     9     3    1
    35    18    14    1
    36    31    32    1
    37     1     2    1
@<TRIPOS>MOLECULE
*****
 34 37 0 0 0
SMALL
GASTEIGER

@<TRIPOS>ATOM
      1 N         142.8371  139.9057  167.8513 N.pl3   1  UNL1       -0.2560
      2 H         143.6553  139.3667  167.7545 H       1  UNL1        0.2592
      3 C         141.5663  139.4659  167.1866 C.3     1  UNL1        0.2144
      4 C         140.2971  139.9365  167.8331 C.3     1  UNL1        0.0490
      5 C         138.8809  139.6712  167.4161 C.3     1  UNL1        0.0057
      6 C         138.3841  138.8696  166.2496 C.3     1  UNL1        0.0216
      7 C         139.1807  138.1355  165.2120 C.3     1  UNL1        0.0940
      8 N         140.6709  138.0216  165.0847 N.am    1  UNL1       -0.2686
      9 C         141.7327  138.6137  165.9635 C.2     1  UNL1        0.2622
     10 O         143.1478  138.3140  165.5667 O.2     1  UNL1       -0.2712
     11 C         141.1648  137.2081  163.9254 C.3     1  UNL1        0.1794
     12 C         140.8896  137.6588  162.5214 C.2     1  UNL1        0.2459
     13 O         139.4989  137.5741  161.9656 O.2     1  UNL1       -0.2730
     14 N         142.0049  138.1942  161.6732 N.am    1  UNL1       -0.2781
     15 C         143.4386  138.3379  162.0900 C.3     1  UNL1        0.0935
     16 C         144.2022  138.9123  160.9338 C.3     1  UNL1        0.0233
     17 C         143.2404  139.1237  159.8023 C.3     1  UNL1        0.0233
     18 C         141.8824  138.6798  160.2593 C.3     1  UNL1        0.0935
     19 N         142.7720  142.4997  167.9814 N.pl3   1  UNL1       -0.0709
     20 C         142.8613  141.1667  168.6633 C.cat   1  UNL1        0.4016
     21 C         144.7388  142.5638  160.3820 C.3     1  UNL1        0.0725
     22 C         144.0945  142.5873  161.7363 C.ar    1  UNL1        0.1233
     23 C         144.8023  142.4515  163.0519 C.ar    1  UNL1        0.0361
     24 C         143.7745  142.5310  164.1416 C.ar    1  UNL1        0.0402
     25 C         143.8880  142.4589  165.6355 C.ar    1  UNL1        0.0402
     26 C         142.6586  142.5718  166.4873 C.ar    1  UNL1        0.1590
     27 C         141.3156  142.7567  165.8453 C.ar    1  UNL1        0.0402
     28 C         141.2021  142.8288  164.3513 C.ar    1  UNL1        0.0405
     29 C         142.4316  142.7160  163.4995 C.ar    1  UNL1        0.1450
     30 O         142.6294  142.7508  162.0130 O.2     1  UNL1       -0.4577
     31 N         142.9747  141.0946  170.1573 N.pl3   1  UNL1       -0.1773
     32 H         143.7972  140.7473  170.5723 H       1  UNL1        0.2780
     33 C         141.8351  141.5516  171.0189 C.1     1  UNL1        0.2552
     34 N         140.6955  142.0087  171.8805 N.1     1  UNL1       -0.1538
@<TRIPOS>BOND
     1    21    22    1
     2    22    23   ar
     3    23    24   ar
     4    24    25   ar
     5    25    26   ar
     6    26    19    1
     7    19    20    2
     8    20    31    1
     9    31    33    1
    10    33    34    3
    11    20     1    1
    12     3     1    1
    13     3     4    1
    14     4     5    1
    15     5     6    1
    16     6     7    1
    17     7     8    1
    18     8    11    1
    19    11    12    1
    20    12    13    2
    21    12    14   am
    22    14    15    1
    23    15    16    1
    24    16    17    1
    25    17    18    1
    26     8     9   am
    27     9    10    2
    28    26    27   ar
    29    27    28   ar
    30    28    29   ar
    31    29    30   ar
    32    30    22   ar
    33    29    24   ar
    34     9     3    1
    35    18    14    1
    36    31    32    1
    37     1     2    1
@<TRIPOS>MOLECULE
*****
 34 37 0 0 0
SMALL
GASTEIGER

@<TRIPOS>ATOM
      1 N         143.1688  139.6494  166.6565 N.pl3   1  UNL1       -0.2560
      2 H         144.1524  139.6907  166.6496 H       1  UNL1        0.2592
      3 C         142.4353  139.0451  165.4960 C.3     1  UNL1        0.2144
      4 C         140.9848  138.7425  165.7292 C.3     1  UNL1        0.0490
      5 C         139.9899  138.1434  164.7798 C.3     1  UNL1        0.0057
      6 C         140.2000  137.6990  163.3626 C.3     1  UNL1        0.0216
      7 C         141.4566  137.7440  162.5448 C.3     1  UNL1        0.0940
      8 N         142.8137  138.2444  162.9423 N.am    1  UNL1       -0.2686
      9 C         143.2493  138.8235  164.2557 C.2     1  UNL1        0.2622
     10 O         144.6891  139.2354  164.3400 O.2     1  UNL1       -0.2712
     11 C         143.8756  138.1538  161.8869 C.3     1  UNL1        0.1794
     12 C         143.6938  138.8620  160.5771 C.2     1  UNL1        0.2459
     13 O         143.2801  138.0910  159.3587 O.2     1  UNL1       -0.2730
     14 N         143.9256  140.3412  160.4857 N.am    1  UNL1       -0.2781
     15 C         144.3400  141.2400  161.6127 C.3     1  UNL1        0.0935
     16 C         144.4543  142.6355  161.0748 C.3     1  UNL1        0.0233
     17 C         144.1104  142.5992  159.6152 C.3     1  UNL1        0.0233
     18 C         143.7837  141.1812  159.2511 C.3     1  UNL1        0.0935
     19 N         141.8020  141.5631  167.7608 N.pl3   1  UNL1       -0.0709
     20 C         142.4037  140.1907  167.8277 C.cat   1  UNL1        0.4016
     21 C         140.0779  145.9700  161.4974 C.3     1  UNL1        0.0725
     22 C         140.6802  145.1639  162.6098 C.ar    1  UNL1        0.1233
     23 C         139.9258  144.4749  163.7080 C.ar    1  UNL1        0.0361
     24 C         140.9221  143.7904  164.5962 C.ar    1  UNL1        0.0402
     25 C         140.7586  142.9594  165.8341 C.ar    1  UNL1        0.0402
     26 C         141.9654  142.3942  166.5228 C.ar    1  UNL1        0.1590
     27 C         143.3356  142.6601  165.9734 C.ar    1  UNL1        0.0402
     28 C         143.4991  143.4911  164.7355 C.ar    1  UNL1        0.0405
     29 C         142.2923  144.0563  164.0469 C.ar    1  UNL1        0.1450
     30 O         142.1428  144.9051  162.8192 O.2     1  UNL1       -0.4577
     31 N         142.2403  139.3596  169.0657 N.pl3   1  UNL1       -0.1773
     32 H         142.8971  138.6575  169.2775 H       1  UNL1        0.2780
     33 C         141.0761  139.5983  169.9809 C.1     1  UNL1        0.2552
     34 N         139.9119  139.8370  170.8962 N.1     1  UNL1       -0.1538
@<TRIPOS>BOND
     1    21    22    1
     2    22    23   ar
     3    23    24   ar
     4    24    25   ar
     5    25    26   ar
     6    26    19    1
     7    19    20    2
     8    20    31    1
     9    31    33    1
    10    33    34    3
    11    20     1    1
    12     3     1    1
    13     3     4    1
    14     4     5    1
    15     5     6    1
    16     6     7    1
    17     7     8    1
    18     8    11    1
    19    11    12    1
    20    12    13    2
    21    12    14   am
    22    14    15    1
    23    15    16    1
    24    16    17    1
    25    17    18    1
    26     8     9   am
    27     9    10    2
    28    26    27   ar
    29    27    28   ar
    30    28    29   ar
    31    29    30   ar
    32    30    22   ar
    33    29    24   ar
    34     9     3    1
    35    18    14    1
    36    31    32    1
    37     1     2    1
@<TRIPOS>MOLECULE
*****
 34 37 0 0 0
SMALL
GASTEIGER

@<TRIPOS>ATOM
      1 N         141.1592  141.5159  166.3987 N.pl3   1  UNL1       -0.2560
      2 H         142.0540  141.6244  166.0029 H       1  UNL1        0.2592
      3 C         140.3667  140.2707  166.1311 C.3     1  UNL1        0.2144
      4 C         139.1386  140.0874  166.9727 C.3     1  UNL1        0.0490
      5 C         138.1476  138.9618  166.9485 C.3     1  UNL1        0.0057
      6 C         138.1399  137.7412  166.0766 C.3     1  UNL1        0.0216
      7 C         139.1213  137.3449  165.0136 C.3     1  UNL1        0.0940
      8 N         140.3527  138.0713  164.5601 N.am    1  UNL1       -0.2686
      9 C         140.9070  139.3735  165.0574 C.2     1  UNL1        0.2622
     10 O         142.1684  139.8401  164.3932 O.2     1  UNL1       -0.2712
     11 C         141.1332  137.4080  163.4642 C.3     1  UNL1        0.1794
     12 C         140.8773  137.7757  162.0327 C.2     1  UNL1        0.2459
     13 O         139.4925  137.6670  161.4664 O.2     1  UNL1       -0.2730
     14 N         142.0062  138.2521  161.1673 N.am    1  UNL1       -0.2781
     15 C         143.4360  138.4112  161.5918 C.3     1  UNL1        0.0935
     16 C         144.2169  138.9105  160.4125 C.3     1  UNL1        0.0233
     17 C         143.2696  139.0599  159.2590 C.3     1  UNL1        0.0233
     18 C         141.9033  138.6531  159.7256 C.3     1  UNL1        0.0935
     19 N         139.7508  143.6829  166.6638 N.pl3   1  UNL1       -0.0709
     20 C         140.5882  142.5957  167.2693 C.cat   1  UNL1        0.4016
     21 C         140.5316  145.1255  158.9870 C.3     1  UNL1        0.0725
     22 C         140.1458  144.7062  160.3746 C.ar    1  UNL1        0.1233
     23 C         140.8907  145.0353  161.6343 C.ar    1  UNL1        0.0361
     24 C         140.1526  144.4167  162.7843 C.ar    1  UNL1        0.0402
     25 C         140.4190  144.4092  164.2604 C.ar    1  UNL1        0.0402
     26 C         139.4844  143.6904  165.1876 C.ar    1  UNL1        0.1590
     27 C         138.2833  142.9790  164.6387 C.ar    1  UNL1        0.0402
     28 C         138.0169  142.9864  163.1626 C.ar    1  UNL1        0.0405
     29 C         138.9515  143.7052  162.2354 C.ar    1  UNL1        0.1450
     30 O         138.9473  143.8842  160.7461 O.2     1  UNL1       -0.4577
     31 N         140.8546  142.5882  168.7455 N.pl3   1  UNL1       -0.1773
     32 H         141.3028  141.8164  169.1609 H       1  UNL1        0.2780
     33 C         140.4379  143.7568  169.5887 C.1     1  UNL1        0.2552
     34 N         140.0213  144.9253  170.4319 N.1     1  UNL1       -0.1538
@<TRIPOS>BOND
     1    21    22    1
     2    22    23   ar
     3    23    24   ar
     4    24    25   ar
     5    25    26   ar
     6    26    19    1
     7    19    20    2
     8    20    31    1
     9    31    33    1
    10    33    34    3
    11    20     1    1
    12     3     1    1
    13     3     4    1
    14     4     5    1
    15     5     6    1
    16     6     7    1
    17     7     8    1
    18     8    11    1
    19    11    12    1
    20    12    13    2
    21    12    14   am
    22    14    15    1
    23    15    16    1
    24    16    17    1
    25    17    18    1
    26     8     9   am
    27     9    10    2
    28    26    27   ar
    29    27    28   ar
    30    28    29   ar
    31    29    30   ar
    32    30    22   ar
    33    29    24   ar
    34     9     3    1
    35    18    14    1
    36    31    32    1
    37     1     2    1
@<TRIPOS>MOLECULE
*****
 34 37 0 0 0
SMALL
GASTEIGER

@<TRIPOS>ATOM
      1 N         141.5576  137.3886  163.1602 N.pl3   1  UNL1       -0.2560
      2 H         141.4133  136.4159  163.2084 H       1  UNL1        0.2592
      3 C         140.5102  138.3288  163.6790 C.3     1  UNL1        0.2144
      4 C         139.9690  138.0123  165.0416 C.3     1  UNL1        0.0490
      5 C         138.9265  138.7499  165.8285 C.3     1  UNL1        0.0057
      6 C         138.1678  139.9864  165.4468 C.3     1  UNL1        0.0216
      7 C         138.2641  140.7905  164.1843 C.3     1  UNL1        0.0940
      8 N         139.1430  140.5567  162.9914 N.am    1  UNL1       -0.2686
      9 C         140.1427  139.4612  162.7665 C.2     1  UNL1        0.2622
     10 O         140.8710  139.5036  161.4559 O.2     1  UNL1       -0.2712
     11 C         139.0040  141.5498  161.8759 C.3     1  UNL1        0.1794
     12 C         138.9838  143.0190  162.1778 C.2     1  UNL1        0.2459
     13 O         137.7205  143.8059  161.9907 O.2     1  UNL1       -0.2730
     14 N         140.2270  143.7014  162.6667 N.am    1  UNL1       -0.2781
     15 C         141.5571  143.0488  162.9004 C.3     1  UNL1        0.0935
     16 C         142.5105  144.1002  163.3858 C.3     1  UNL1        0.0233
     17 C         141.7695  145.4027  163.4521 C.3     1  UNL1        0.0233
     18 C         140.3582  145.1562  163.0076 C.3     1  UNL1        0.0935
     19 N         143.6792  138.8746  163.3605 N.pl3   1  UNL1       -0.0709
     20 C         142.8247  137.9304  162.5679 C.cat   1  UNL1        0.4016
     21 C         140.7673  143.0897  169.3083 C.3     1  UNL1        0.0725
     22 C         141.3802  142.0881  168.3749 C.ar    1  UNL1        0.1233
     23 C         141.5493  142.2517  166.8935 C.ar    1  UNL1        0.0361
     24 C         142.2051  141.0118  166.3620 C.ar    1  UNL1        0.0402
     25 C         142.6177  140.6094  164.9772 C.ar    1  UNL1        0.0402
     26 C         143.2666  139.2771  164.7454 C.ar    1  UNL1        0.1590
     27 C         143.5029  138.3471  165.8984 C.ar    1  UNL1        0.0402
     28 C         143.0903  138.7495  167.2832 C.ar    1  UNL1        0.0405
     29 C         142.4414  140.0819  167.5150 C.ar    1  UNL1        0.1450
     30 O         141.9316  140.7471  168.7590 O.2     1  UNL1       -0.4577
     31 N         143.2374  137.5279  161.1830 N.pl3   1  UNL1       -0.1773
     32 H         143.2504  136.5765  160.9302 H       1  UNL1        0.2780
     33 C         143.6301  138.5750  160.1834 C.1     1  UNL1        0.2552
     34 N         144.0228  139.6221  159.1838 N.1     1  UNL1       -0.1538
@<TRIPOS>BOND
     1    21    22    1
     2    22    23   ar
     3    23    24   ar
     4    24    25   ar
     5    25    26   ar
     6    26    19    1
     7    19    20    2
     8    20    31    1
     9    31    33    1
    10    33    34    3
    11    20     1    1
    12     3     1    1
    13     3     4    1
    14     4     5    1
    15     5     6    1
    16     6     7    1
    17     7     8    1
    18     8    11    1
    19    11    12    1
    20    12    13    2
    21    12    14   am
    22    14    15    1
    23    15    16    1
    24    16    17    1
    25    17    18    1
    26     8     9   am
    27     9    10    2
    28    26    27   ar
    29    27    28   ar
    30    28    29   ar
    31    29    30   ar
    32    30    22   ar
    33    29    24   ar
    34     9     3    1
    35    18    14    1
    36    31    32    1
    37     1     2    1
@<TRIPOS>MOLECULE
*****
 34 37 0 0 0
SMALL
GASTEIGER

@<TRIPOS>ATOM
      1 N         141.6348  141.5162  167.4303 N.pl3   1  UNL1       -0.2560
      2 H         140.6932  141.5442  167.7163 H       1  UNL1        0.2592
      3 C         142.1290  142.4688  166.3822 C.3     1  UNL1        0.2144
      4 C         143.6184  142.6228  166.2930 C.3     1  UNL1        0.0490
      5 C         144.4151  143.4874  165.3615 C.3     1  UNL1        0.0057
      6 C         143.9191  144.4116  164.2890 C.3     1  UNL1        0.0216
      7 C         142.5040  144.6993  163.8833 C.3     1  UNL1        0.0940
      8 N         141.2353  144.1340  164.4498 N.am    1  UNL1       -0.2686
      9 C         141.0684  143.1413  165.5620 C.2     1  UNL1        0.2622
     10 O         139.6539  142.7723  165.8983 O.2     1  UNL1       -0.2712
     11 C         139.9656  144.6264  163.8211 C.3     1  UNL1        0.1794
     12 C         139.9015  144.8549  162.3400 C.2     1  UNL1        0.2459
     13 O         139.8918  146.2530  161.7965 O.2     1  UNL1       -0.2730
     14 N         139.8471  143.6853  161.4023 N.am    1  UNL1       -0.2781
     15 C         139.8496  142.2382  161.7968 C.3     1  UNL1        0.0935
     16 C         139.7846  141.4160  160.5439 C.3     1  UNL1        0.0233
     17 C         139.7420  142.3551  159.3750 C.3     1  UNL1        0.0233
     18 C         139.7806  143.7576  159.9055 C.3     1  UNL1        0.0935
     19 N         142.9210  139.2625  167.3035 N.pl3   1  UNL1       -0.0709
     20 C         142.5754  140.5211  168.0427 C.cat   1  UNL1        0.4016
     21 C         137.6328  138.1828  161.6033 C.3     1  UNL1        0.0725
     22 C         138.8365  138.3451  162.4836 C.ar    1  UNL1        0.1233
     23 C         138.8200  138.6395  163.9543 C.ar    1  UNL1        0.0361
     24 C         140.2413  138.7178  164.4274 C.ar    1  UNL1        0.0402
     25 C         140.8362  138.9814  165.7789 C.ar    1  UNL1        0.0402
     26 C         142.3260  138.9989  165.9520 C.ar    1  UNL1        0.1590
     27 C         143.2210  138.7530  164.7736 C.ar    1  UNL1        0.0402
     28 C         142.6261  138.4895  163.4221 C.ar    1  UNL1        0.0405
     29 C         141.1362  138.4719  163.2490 C.ar    1  UNL1        0.1450
     30 O         140.2680  138.2416  162.0477 O.2     1  UNL1       -0.4577
     31 N         143.1704  140.7846  169.3942 N.pl3   1  UNL1       -0.1773
     32 H         143.6492  140.0676  169.8696 H       1  UNL1        0.2780
     33 C         143.0358  142.1405  170.0215 C.1     1  UNL1        0.2552
     34 N         142.9013  143.4964  170.6487 N.1     1  UNL1       -0.1538
@<TRIPOS>BOND
     1    21    22    1
     2    22    23   ar
     3    23    24   ar
     4    24    25   ar
     5    25    26   ar
     6    26    19    1
     7    19    20    2
     8    20    31    1
     9    31    33    1
    10    33    34    3
    11    20     1    1
    12     3     1    1
    13     3     4    1
    14     4     5    1
    15     5     6    1
    16     6     7    1
    17     7     8    1
    18     8    11    1
    19    11    12    1
    20    12    13    2
    21    12    14   am
    22    14    15    1
    23    15    16    1
    24    16    17    1
    25    17    18    1
    26     8     9   am
    27     9    10    2
    28    26    27   ar
    29    27    28   ar
    30    28    29   ar
    31    29    30   ar
    32    30    22   ar
    33    29    24   ar
    34     9     3    1
    35    18    14    1
    36    31    32    1
    37     1     2    1
@<TRIPOS>MOLECULE
*****
 34 37 0 0 0
SMALL
GASTEIGER

@<TRIPOS>ATOM
      1 N         142.1939  140.1909  168.1100 N.pl3   1  UNL1       -0.2560
      2 H         142.4773  139.5010  168.7527 H       1  UNL1        0.2592
      3 C         142.6869  140.1446  166.6940 C.3     1  UNL1        0.2144
      4 C         142.5818  138.8131  166.0115 C.3     1  UNL1        0.0490
      5 C         142.9836  138.4440  164.6142 C.3     1  UNL1        0.0057
      6 C         143.5898  139.3155  163.5544 C.3     1  UNL1        0.0216
      7 C         143.9439  140.7711  163.6301 C.3     1  UNL1        0.0940
      8 N         143.7793  141.7148  164.7844 N.am    1  UNL1       -0.2686
      9 C         143.2198  141.4360  166.1480 C.2     1  UNL1        0.2622
     10 O         143.1893  142.6029  167.0900 O.2     1  UNL1       -0.2712
     11 C         144.2342  143.1236  164.5432 C.3     1  UNL1        0.1794
     12 C         143.6745  143.9059  163.3921 C.2     1  UNL1        0.2459
     13 O         144.5509  144.2550  162.2259 O.2     1  UNL1       -0.2730
     14 N         142.2385  144.3391  163.4073 N.am    1  UNL1       -0.2781
     15 C         141.2465  144.0654  164.4986 C.3     1  UNL1        0.0935
     16 C         139.9373  144.6792  164.0996 C.3     1  UNL1        0.0233
     17 C         140.1202  145.3324  162.7617 C.3     1  UNL1        0.0233
     18 C         141.5424  145.1222  162.3339 C.3     1  UNL1        0.0935
     19 N         139.9415  141.4634  167.8709 N.pl3   1  UNL1       -0.0709
     20 C         141.2691  141.2881  168.5467 C.cat   1  UNL1        0.4016
     21 C         138.8660  138.5616  160.6566 C.3     1  UNL1        0.0725
     22 C         138.9452  138.8722  162.1219 C.ar    1  UNL1        0.1233
     23 C         139.5325  140.1113  162.7300 C.ar    1  UNL1        0.0361
     24 C         139.4014  140.0033  164.2204 C.ar    1  UNL1        0.0402
     25 C         139.8042  140.9253  165.3328 C.ar    1  UNL1        0.0402
     26 C         139.5387  140.5414  166.7583 C.ar    1  UNL1        0.1590
     27 C         138.8704  139.2354  167.0713 C.ar    1  UNL1        0.0402
     28 C         138.4676  138.3134  165.9589 C.ar    1  UNL1        0.0405
     29 C         138.7331  138.6974  164.5334 C.ar    1  UNL1        0.1450
     30 O         138.4512  137.9984  163.2365 O.2     1  UNL1       -0.4577
     31 N         141.6719  142.2101  169.6592 N.pl3   1  UNL1       -0.1773
     32 H         142.4630  142.0036  170.2077 H       1  UNL1        0.2780
     33 C         140.8694  143.4468  169.9361 C.1     1  UNL1        0.2552
     34 N         140.0669  144.6834  170.2130 N.1     1  UNL1       -0.1538
@<TRIPOS>BOND
     1    21    22    1
     2    22    23   ar
     3    23    24   ar
     4    24    25   ar
     5    25    26   ar
     6    26    19    1
     7    19    20    2
     8    20    31    1
     9    31    33    1
    10    33    34    3
    11    20     1    1
    12     3     1    1
    13     3     4    1
    14     4     5    1
    15     5     6    1
    16     6     7    1
    17     7     8    1
    18     8    11    1
    19    11    12    1
    20    12    13    2
    21    12    14   am
    22    14    15    1
    23    15    16    1
    24    16    17    1
    25    17    18    1
    26     8     9   am
    27     9    10    2
    28    26    27   ar
    29    27    28   ar
    30    28    29   ar
    31    29    30   ar
    32    30    22   ar
    33    29    24   ar
    34     9     3    1
    35    18    14    1
    36    31    32    1
    37     1     2    1
@<TRIPOS>MOLECULE
*****
 34 37 0 0 0
SMALL
GASTEIGER

@<TRIPOS>ATOM
      1 N         140.0847  137.4612  164.3138 N.pl3   1  UNL1       -0.2560
      2 H         139.9130  136.6259  164.8059 H       1  UNL1        0.2592
      3 C         141.4772  138.0136  164.2366 C.3     1  UNL1        0.2144
      4 C         142.0335  138.5577  165.5190 C.3     1  UNL1        0.0490
      5 C         143.3792  139.1714  165.7688 C.3     1  UNL1        0.0057
      6 C         144.5009  139.3927  164.7978 C.3     1  UNL1        0.0216
      7 C         144.5540  139.0549  163.3374 C.3     1  UNL1        0.0940
      8 N         143.4985  138.4124  162.4871 N.am    1  UNL1       -0.2686
      9 C         142.1291  137.9490  162.8873 C.2     1  UNL1        0.2622
     10 O         141.3024  137.3404  161.7936 O.2     1  UNL1       -0.2712
     11 C         143.8600  138.2060  161.0460 C.3     1  UNL1        0.1794
     12 C         143.6220  139.3009  160.0487 C.2     1  UNL1        0.2459
     13 O         143.9643  140.7194  160.3963 O.2     1  UNL1       -0.2730
     14 N         143.0417  138.9773  158.7038 N.am    1  UNL1       -0.2781
     15 C         142.6519  137.6133  158.2169 C.3     1  UNL1        0.0935
     16 C         142.1186  137.7539  156.8219 C.3     1  UNL1        0.0233
     17 C         142.1789  139.2050  156.4468 C.3     1  UNL1        0.0233
     18 C         142.7493  139.9611  157.6099 C.3     1  UNL1        0.0935
     19 N         138.2750  139.3252  164.3347 N.pl3   1  UNL1       -0.0709
     20 C         138.9538  138.1814  163.6413 C.cat   1  UNL1        0.4016
     21 C         141.9225  143.2784  170.0523 C.3     1  UNL1        0.0725
     22 C         141.1169  142.3663  169.1755 C.ar    1  UNL1        0.1233
     23 C         141.0406  142.4227  167.6785 C.ar    1  UNL1        0.0361
     24 C         140.1226  141.3288  167.2195 C.ar    1  UNL1        0.0402
     25 C         139.6705  140.9052  165.8535 C.ar    1  UNL1        0.0402
     26 C         138.7272  139.7489  165.7008 C.ar    1  UNL1        0.1590
     27 C         138.2361  139.0164  166.9141 C.ar    1  UNL1        0.0402
     28 C         138.6882  139.4401  168.2801 C.ar    1  UNL1        0.0405
     29 C         139.6315  140.5963  168.4328 C.ar    1  UNL1        0.1450
     30 O         140.2460  141.2374  169.6417 O.2     1  UNL1       -0.4577
     31 N         138.5016  137.7576  162.2752 N.pl3   1  UNL1       -0.1773
     32 H         138.5652  136.8126  162.0067 H       1  UNL1        0.2780
     33 C         137.9524  138.7738  161.3183 C.1     1  UNL1        0.2552
     34 N         137.4032  139.7900  160.3613 N.1     1  UNL1       -0.1538
@<TRIPOS>BOND
     1    21    22    1
     2    22    23   ar
     3    23    24   ar
     4    24    25   ar
     5    25    26   ar
     6    26    19    1
     7    19    20    2
     8    20    31    1
     9    31    33    1
    10    33    34    3
    11    20     1    1
    12     3     1    1
    13     3     4    1
    14     4     5    1
    15     5     6    1
    16     6     7    1
    17     7     8    1
    18     8    11    1
    19    11    12    1
    20    12    13    2
    21    12    14   am
    22    14    15    1
    23    15    16    1
    24    16    17    1
    25    17    18    1
    26     8     9   am
    27     9    10    2
    28    26    27   ar
    29    27    28   ar
    30    28    29   ar
    31    29    30   ar
    32    30    22   ar
    33    29    24   ar
    34     9     3    1
    35    18    14    1
    36    31    32    1
    37     1     2    1
@<TRIPOS>MOLECULE
*****
 34 37 0 0 0
SMALL
GASTEIGER

@<TRIPOS>ATOM
      1 N         142.5622  139.8219  167.7161 N.pl3   1  UNL1       -0.2560
      2 H         142.6630  138.8459  167.7967 H       1  UNL1        0.2592
      3 C         143.1058  140.5353  166.5137 C.3     1  UNL1        0.2144
      4 C         143.3453  142.0064  166.6830 C.3     1  UNL1        0.0490
      5 C         143.8762  142.9888  165.6815 C.3     1  UNL1        0.0057
      6 C         144.2987  142.7428  164.2634 C.3     1  UNL1        0.0216
      7 C         144.2946  141.4536  163.4966 C.3     1  UNL1        0.0940
      8 N         143.8671  140.0921  163.9584 N.am    1  UNL1       -0.2686
      9 C         143.3380  139.6833  165.3013 C.2     1  UNL1        0.2622
     10 O         142.9959  138.2306  165.4514 O.2     1  UNL1       -0.2712
     11 C         143.9841  138.9939  162.9434 C.3     1  UNL1        0.1794
     12 C         143.2707  139.1084  161.6288 C.2     1  UNL1        0.2459
     13 O         143.9942  139.6389  160.4266 O.2     1  UNL1       -0.2730
     14 N         141.8339  138.6925  161.5165 N.am    1  UNL1       -0.2781
     15 C         140.9847  138.1468  162.6259 C.3     1  UNL1        0.0935
     16 C         139.6200  137.8663  162.0701 C.3     1  UNL1        0.0233
     17 C         139.6258  138.2386  160.6171 C.3     1  UNL1        0.0233
     18 C         140.9941  138.7493  160.2749 C.3     1  UNL1        0.0935
     19 N         140.4571  141.0699  168.5884 N.pl3   1  UNL1       -0.0709
     20 C         141.8649  140.5955  168.7956 C.cat   1  UNL1        0.4016
     21 C         137.9267  141.7036  161.1844 C.3     1  UNL1        0.0725
     22 C         138.2524  141.3416  162.6032 C.ar    1  UNL1        0.1233
     23 C         139.1372  142.1204  163.5309 C.ar    1  UNL1        0.0361
     24 C         139.1822  141.3974  164.8444 C.ar    1  UNL1        0.0402
     25 C         139.8929  141.6968  166.1310 C.ar    1  UNL1        0.0402
     26 C         139.7464  140.7705  167.3017 C.ar    1  UNL1        0.1590
     27 C         138.8894  139.5450  167.1858 C.ar    1  UNL1        0.0402
     28 C         138.1788  139.2456  165.8992 C.ar    1  UNL1        0.0405
     29 C         138.3252  140.1718  164.7285 C.ar    1  UNL1        0.1450
     30 O         137.7506  140.1374  163.3434 O.2     1  UNL1       -0.4577
     31 N         142.5756  140.8949  170.0822 N.pl3   1  UNL1       -0.1773
     32 H         142.8622  140.1583  170.6692 H       1  UNL1        0.2780
     33 C         142.8494  142.3165  170.4746 C.1     1  UNL1        0.2552
     34 N         143.1233  143.7382  170.8670 N.1     1  UNL1       -0.1538
@<TRIPOS>BOND
     1    21    22    1
     2    22    23   ar
     3    23    24   ar
     4    24    25   ar
     5    25    26   ar
     6    26    19    1
     7    19    20    2
     8    20    31    1
     9    31    33    1
    10    33    34    3
    11    20     1    1
    12     3     1    1
    13     3     4    1
    14     4     5    1
    15     5     6    1
    16     6     7    1
    17     7     8    1
    18     8    11    1
    19    11    12    1
    20    12    13    2
    21    12    14   am
    22    14    15    1
    23    15    16    1
    24    16    17    1
    25    17    18    1
    26     8     9   am
    27     9    10    2
    28    26    27   ar
    29    27    28   ar
    30    28    29   ar
    31    29    30   ar
    32    30    22   ar
    33    29    24   ar
    34     9     3    1
    35    18    14    1
    36    31    32    1
    37     1     2    1
