@<TRIPOS>MOLECULE
*****
 29 33 0 0 0
SMALL
GASTEIGER

@<TRIPOS>ATOM
      1 C         141.2725  138.9479  165.0504 C.ar    1  UNL1        0.0681
      2 C         140.5106  137.6876  164.7653 C.ar    1  UNL1        0.0208
      3 C         140.2687  137.2620  163.3475 C.ar    1  UNL1        0.0384
      4 C         140.7887  138.0965  162.2148 C.ar    1  UNL1        0.1385
      5 C         141.5506  139.3568  162.4999 C.ar    1  UNL1        0.0384
      6 C         141.7925  139.7824  163.9177 C.ar    1  UNL1        0.0208
      7 C         143.8291  138.1942  166.4274 C.3     1  UNL1        0.0723
      8 C         142.7927  138.9967  167.1568 C.ar    1  UNL1        0.1268
      9 N         143.0346  139.4223  168.5746 N.ar    1  UNL1       -0.2317
     10 C         141.9983  140.2248  169.3041 C.ar    1  UNL1        0.0902
     11 C         142.2402  140.6504  170.7219 C.ar    1  UNL1        0.0400
     12 C         141.2039  141.4528  171.4513 C.ar    1  UNL1        0.1004
     13 N         139.9256  141.8297  170.7628 N.ar    1  UNL1       -0.2421
     14 C         139.6836  141.4041  169.3450 C.ar    1  UNL1        0.1051
     15 C         140.7200  140.6016  168.6156 C.ar    1  UNL1        0.0933
     16 C         140.4781  140.1760  167.1977 C.ar    1  UNL1        0.2685
     17 O         139.1998  140.5528  166.5092 O.2     1  UNL1       -0.2665
     18 N         141.5144  139.3735  166.4683 N.ar    1  UNL1       -0.2625
     19 O         140.5468  137.6709  160.7969 O.3     1  UNL1       -0.4791
     20 C         139.7547  138.5497  159.8748 C.3     1  UNL1        0.1687
     21 C         140.1359  138.6552  158.4278 C.3     1  UNL1        0.0609
     22 C         139.3438  139.5340  157.5057 C.3     1  UNL1        0.0758
     23 N         138.1705  140.3073  158.0306 N.3     1  UNL1       -0.2737
     24 C         137.7893  140.2017  159.4775 C.3     1  UNL1        0.0758
     25 C         138.5814  139.3229  160.3996 C.3     1  UNL1        0.0609
     26 C         137.3784  141.1861  157.1085 C.3     1  UNL1        0.0575
     27 C         136.2539  140.9670  156.1401 C.3     1  UNL1        0.0160
     28 C         136.2582  142.4289  155.8045 C.3     1  UNL1        0.0028
     29 C         137.3825  142.6480  156.7728 C.3     1  UNL1        0.0160
@<TRIPOS>BOND
     1     7     8    1
     2     8     9   ar
     3     9    10   ar
     4    10    11   ar
     5    11    12   ar
     6    12    13   ar
     7    13    14   ar
     8    14    15   ar
     9    15    16   ar
    10    16    17    2
    11    16    18   ar
    12    18     1    1
    13     1     2   ar
    14     2     3   ar
    15     3     4   ar
    16     4    19    1
    17    19    20    1
    18    20    21    1
    19    21    22    1
    20    22    23    1
    21    23    26    1
    22    26    27    1
    23    27    28    1
    24    28    29    1
    25    23    24    1
    26    24    25    1
    27     4     5   ar
    28     5     6   ar
    29    18     8   ar
    30     6     1   ar
    31    15    10   ar
    32    25    20    1
    33    29    26    1
@<TRIPOS>MOLECULE
*****
 29 33 0 0 0
SMALL
GASTEIGER

@<TRIPOS>ATOM
      1 C         138.9845  140.6507  164.8009 C.ar    1  UNL1        0.0681
      2 C         137.7851  141.3860  164.2807 C.ar    1  UNL1        0.0208
      3 C         137.4704  141.3652  162.8143 C.ar    1  UNL1        0.0384
      4 C         138.3551  140.6091  161.8680 C.ar    1  UNL1        0.1385
      5 C         139.5545  139.8737  162.3882 C.ar    1  UNL1        0.0384
      6 C         139.8693  139.8945  163.8546 C.ar    1  UNL1        0.0208
      7 C         137.9404  138.4807  166.5900 C.3     1  UNL1        0.0723
      8 C         138.7771  139.5865  167.1620 C.ar    1  UNL1        0.1268
      9 N         139.0918  139.6073  168.6284 N.ar    1  UNL1       -0.2317
     10 C         139.9285  140.7131  169.2004 C.ar    1  UNL1        0.0902
     11 C         140.2432  140.7339  170.6668 C.ar    1  UNL1        0.0400
     12 C         141.0799  141.8397  171.2387 C.ar    1  UNL1        0.1004
     13 N         141.6019  142.9247  170.3442 N.ar    1  UNL1       -0.2421
     14 C         141.2873  142.9039  168.8777 C.ar    1  UNL1        0.1051
     15 C         140.4506  141.7981  168.3058 C.ar    1  UNL1        0.0933
     16 C         140.1359  141.7773  166.8393 C.ar    1  UNL1        0.2685
     17 O         140.6580  142.8623  165.9448 O.2     1  UNL1       -0.2665
     18 N         139.2992  140.6715  166.2674 N.ar    1  UNL1       -0.2625
     19 O         138.0404  140.5882  160.4015 O.3     1  UNL1       -0.4791
     20 C         138.5109  141.7050  159.5176 C.3     1  UNL1        0.1687
     21 C         138.0912  141.7499  158.0781 C.3     1  UNL1        0.0609
     22 C         138.5617  142.8667  157.1942 C.3     1  UNL1        0.0758
     23 N         139.4519  143.9387  157.7497 N.3     1  UNL1       -0.2737
     24 C         139.8715  143.8938  159.1891 C.3     1  UNL1        0.0758
     25 C         139.4010  142.7770  160.0730 C.3     1  UNL1        0.0609
     26 C         139.9223  145.0555  156.8657 C.3     1  UNL1        0.0575
     27 C         141.1652  145.8914  156.7834 C.3     1  UNL1        0.0160
     28 C         140.5877  146.6349  155.6157 C.3     1  UNL1        0.0028
     29 C         139.3449  145.7992  155.6980 C.3     1  UNL1        0.0160
@<TRIPOS>BOND
     1     7     8    1
     2     8     9   ar
     3     9    10   ar
     4    10    11   ar
     5    11    12   ar
     6    12    13   ar
     7    13    14   ar
     8    14    15   ar
     9    15    16   ar
    10    16    17    2
    11    16    18   ar
    12    18     1    1
    13     1     2   ar
    14     2     3   ar
    15     3     4   ar
    16     4    19    1
    17    19    20    1
    18    20    21    1
    19    21    22    1
    20    22    23    1
    21    23    26    1
    22    26    27    1
    23    27    28    1
    24    28    29    1
    25    23    24    1
    26    24    25    1
    27     4     5   ar
    28     5     6   ar
    29    18     8   ar
    30     6     1   ar
    31    15    10   ar
    32    25    20    1
    33    29    26    1
@<TRIPOS>MOLECULE
*****
 29 33 0 0 0
SMALL
GASTEIGER

@<TRIPOS>ATOM
      1 C         140.5624  139.0974  164.8542 C.ar    1  UNL1        0.0681
      2 C         140.0710  139.9964  163.7586 C.ar    1  UNL1        0.0208
      3 C         140.1816  139.5634  162.3267 C.ar    1  UNL1        0.0384
      4 C         140.7836  138.2312  161.9905 C.ar    1  UNL1        0.1385
      5 C         141.2749  137.3322  163.0861 C.ar    1  UNL1        0.0384
      6 C         141.1643  137.7653  164.5179 C.ar    1  UNL1        0.0208
      7 C         138.0159  138.6307  166.3699 C.3     1  UNL1        0.0723
      8 C         139.1785  139.2972  167.0439 C.ar    1  UNL1        0.1268
      9 N         139.0678  139.7303  168.4757 N.ar    1  UNL1       -0.2317
     10 C         140.2304  140.3968  169.1497 C.ar    1  UNL1        0.0902
     11 C         140.1197  140.8299  170.5815 C.ar    1  UNL1        0.0400
     12 C         141.2823  141.4964  171.2555 C.ar    1  UNL1        0.1004
     13 N         142.5555  141.7298  170.4976 N.ar    1  UNL1       -0.2421
     14 C         142.6662  141.2967  169.0658 C.ar    1  UNL1        0.1051
     15 C         141.5036  140.6302  168.3918 C.ar    1  UNL1        0.0933
     16 C         141.6143  140.1970  166.9600 C.ar    1  UNL1        0.2685
     17 O         142.8875  140.4304  166.2021 O.2     1  UNL1       -0.2665
     18 N         140.4517  139.5306  166.2860 N.ar    1  UNL1       -0.2625
     19 O         140.8942  137.7981  160.5586 O.3     1  UNL1       -0.4791
     20 C         141.8754  138.4711  159.6452 C.3     1  UNL1        0.1687
     21 C         141.9318  138.0920  158.1949 C.3     1  UNL1        0.0609
     22 C         142.9129  138.7651  157.2815 C.3     1  UNL1        0.0758
     23 N         143.8376  139.8172  157.8182 N.3     1  UNL1       -0.2737
     24 C         143.7811  140.1963  159.2684 C.3     1  UNL1        0.0758
     25 C         142.8000  139.5232  160.1819 C.3     1  UNL1        0.0609
     26 C         144.8187  140.4903  156.9048 C.3     1  UNL1        0.0575
     27 C         145.5960  141.7726  156.9428 C.3     1  UNL1        0.0160
     28 C         146.2062  141.4421  155.6130 C.3     1  UNL1        0.0028
     29 C         145.4290  140.1598  155.5750 C.3     1  UNL1        0.0160
@<TRIPOS>BOND
     1     7     8    1
     2     8     9   ar
     3     9    10   ar
     4    10    11   ar
     5    11    12   ar
     6    12    13   ar
     7    13    14   ar
     8    14    15   ar
     9    15    16   ar
    10    16    17    2
    11    16    18   ar
    12    18     1    1
    13     1     2   ar
    14     2     3   ar
    15     3     4   ar
    16     4    19    1
    17    19    20    1
    18    20    21    1
    19    21    22    1
    20    22    23    1
    21    23    26    1
    22    26    27    1
    23    27    28    1
    24    28    29    1
    25    23    24    1
    26    24    25    1
    27     4     5   ar
    28     5     6   ar
    29    18     8   ar
    30     6     1   ar
    31    15    10   ar
    32    25    20    1
    33    29    26    1
@<TRIPOS>MOLECULE
*****
 29 33 0 0 0
SMALL
GASTEIGER

@<TRIPOS>ATOM
      1 C         142.1183  138.7765  159.7570 C.ar    1  UNL1        0.0681
      2 C         140.6851  139.2145  159.8204 C.ar    1  UNL1        0.0208
      3 C         139.8277  138.8094  160.9826 C.ar    1  UNL1        0.0384
      4 C         140.4035  137.9662  162.0814 C.ar    1  UNL1        0.1385
      5 C         141.8367  137.5282  162.0180 C.ar    1  UNL1        0.0384
      6 C         142.6941  137.9333  160.8558 C.ar    1  UNL1        0.0208
      7 C         142.2019  137.0730  157.2890 C.3     1  UNL1        0.0723
      8 C         143.0175  138.3300  157.3607 C.ar    1  UNL1        0.1268
      9 N         143.8748  138.7351  156.1985 N.ar    1  UNL1       -0.2317
     10 C         144.6904  139.9920  156.2703 C.ar    1  UNL1        0.0902
     11 C         145.5477  140.3971  155.1080 C.ar    1  UNL1        0.0400
     12 C         146.3632  141.6540  155.1798 C.ar    1  UNL1        0.1004
     13 N         146.3214  142.5057  156.4139 N.ar    1  UNL1       -0.2421
     14 C         145.4641  142.1006  157.5761 C.ar    1  UNL1        0.1051
     15 C         144.6486  140.8437  157.5043 C.ar    1  UNL1        0.0933
     16 C         143.7912  140.4385  158.6666 C.ar    1  UNL1        0.2685
     17 O         143.7494  141.2903  159.9006 O.2     1  UNL1       -0.2665
     18 N         142.9757  139.1817  158.5948 N.ar    1  UNL1       -0.2625
     19 O         139.5461  137.5610  163.2436 O.3     1  UNL1       -0.4791
     20 C         139.6003  138.3413  164.5236 C.3     1  UNL1        0.1687
     21 C         138.4508  138.2847  165.4857 C.3     1  UNL1        0.0609
     22 C         138.5050  139.0650  166.7656 C.3     1  UNL1        0.0758
     23 N         139.7088  139.9018  167.0835 N.3     1  UNL1       -0.2737
     24 C         140.8582  139.9583  166.1214 C.3     1  UNL1        0.0758
     25 C         140.8040  139.1780  164.8415 C.3     1  UNL1        0.0609
     26 C         139.7630  140.6821  168.3634 C.3     1  UNL1        0.0575
     27 C         140.4140  141.9613  168.7990 C.3     1  UNL1        0.0160
     28 C         139.8396  141.7855  170.1735 C.3     1  UNL1        0.0028
     29 C         139.1887  140.5063  169.7379 C.3     1  UNL1        0.0160
@<TRIPOS>BOND
     1     7     8    1
     2     8     9   ar
     3     9    10   ar
     4    10    11   ar
     5    11    12   ar
     6    12    13   ar
     7    13    14   ar
     8    14    15   ar
     9    15    16   ar
    10    16    17    2
    11    16    18   ar
    12    18     1    1
    13     1     2   ar
    14     2     3   ar
    15     3     4   ar
    16     4    19    1
    17    19    20    1
    18    20    21    1
    19    21    22    1
    20    22    23    1
    21    23    26    1
    22    26    27    1
    23    27    28    1
    24    28    29    1
    25    23    24    1
    26    24    25    1
    27     4     5   ar
    28     5     6   ar
    29    18     8   ar
    30     6     1   ar
    31    15    10   ar
    32    25    20    1
    33    29    26    1
@<TRIPOS>MOLECULE
*****
 29 33 0 0 0
SMALL
GASTEIGER

@<TRIPOS>ATOM
      1 C         140.8684  139.3269  159.6939 C.ar    1  UNL1        0.0681
      2 C         140.5139  139.1715  158.2447 C.ar    1  UNL1        0.0208
      3 C         141.3566  138.3063  157.3551 C.ar    1  UNL1        0.0384
      4 C         142.5537  137.5967  157.9147 C.ar    1  UNL1        0.1385
      5 C         142.9082  137.7521  159.3639 C.ar    1  UNL1        0.0384
      6 C         142.0656  138.6172  160.2535 C.ar    1  UNL1        0.0208
      7 C         138.8092  138.0806  161.4845 C.3     1  UNL1        0.0723
      8 C         138.9961  139.5690  161.4788 C.ar    1  UNL1        0.1268
      9 N         138.1534  140.4341  162.3684 N.ar    1  UNL1       -0.2317
     10 C         138.3403  141.9224  162.3628 C.ar    1  UNL1        0.0902
     11 C         137.4976  142.7875  163.2524 C.ar    1  UNL1        0.0400
     12 C         137.6846  144.2758  163.2467 C.ar    1  UNL1        0.1004
     13 N         138.7142  144.8989  162.3513 N.ar    1  UNL1       -0.2421
     14 C         139.5569  144.0338  161.4617 C.ar    1  UNL1        0.1051
     15 C         139.3699  142.5456  161.4675 C.ar    1  UNL1        0.0933
     16 C         140.2126  141.6804  160.5778 C.ar    1  UNL1        0.2685
     17 O         141.2423  142.3035  159.6825 O.2     1  UNL1       -0.2665
     18 N         140.0257  140.1921  160.5835 N.ar    1  UNL1       -0.2625
     19 O         143.3964  136.7315  157.0250 O.3     1  UNL1       -0.4791
     20 C         142.8957  135.3839  156.5968 C.3     1  UNL1        0.1687
     21 C         141.8602  135.2771  155.5168 C.3     1  UNL1        0.0609
     22 C         141.3595  133.9295  155.0885 C.3     1  UNL1        0.0758
     23 N         141.8944  132.6888  155.7402 N.3     1  UNL1       -0.2737
     24 C         142.9299  132.7957  156.8201 C.3     1  UNL1        0.0758
     25 C         143.4306  134.1433  157.2484 C.3     1  UNL1        0.0609
     26 C         141.3937  131.3412  155.3119 C.3     1  UNL1        0.0575
     27 C         141.8969  129.9337  155.4375 C.3     1  UNL1        0.0160
     28 C         140.6857  129.4355  154.7062 C.3     1  UNL1        0.0028
     29 C         140.1826  130.8430  154.5806 C.3     1  UNL1        0.0160
@<TRIPOS>BOND
     1     7     8    1
     2     8     9   ar
     3     9    10   ar
     4    10    11   ar
     5    11    12   ar
     6    12    13   ar
     7    13    14   ar
     8    14    15   ar
     9    15    16   ar
    10    16    17    2
    11    16    18   ar
    12    18     1    1
    13     1     2   ar
    14     2     3   ar
    15     3     4   ar
    16     4    19    1
    17    19    20    1
    18    20    21    1
    19    21    22    1
    20    22    23    1
    21    23    26    1
    22    26    27    1
    23    27    28    1
    24    28    29    1
    25    23    24    1
    26    24    25    1
    27     4     5   ar
    28     5     6   ar
    29    18     8   ar
    30     6     1   ar
    31    15    10   ar
    32    25    20    1
    33    29    26    1
@<TRIPOS>MOLECULE
*****
 29 33 0 0 0
SMALL
GASTEIGER

@<TRIPOS>ATOM
      1 C         140.7814  139.1332  164.7730 C.ar    1  UNL1        0.0681
      2 C         140.2963  137.7700  164.3775 C.ar    1  UNL1        0.0208
      3 C         139.8822  137.5032  162.9607 C.ar    1  UNL1        0.0384
      4 C         139.9530  138.5996  161.9395 C.ar    1  UNL1        0.1385
      5 C         140.4381  139.9627  162.3351 C.ar    1  UNL1        0.0384
      6 C         140.8522  140.2296  163.7518 C.ar    1  UNL1        0.0208
      7 C         143.5813  138.5193  165.6582 C.3     1  UNL1        0.0723
      8 C         142.5955  139.0930  166.6324 C.ar    1  UNL1        0.1268
      9 N         143.0097  139.3598  168.0492 N.ar    1  UNL1       -0.2317
     10 C         142.0239  139.9336  169.0234 C.ar    1  UNL1        0.0902
     11 C         142.4381  140.2003  170.4402 C.ar    1  UNL1        0.0400
     12 C         141.4524  140.7741  171.4144 C.ar    1  UNL1        0.1004
     13 N         140.0524  141.0810  170.9718 N.ar    1  UNL1       -0.2421
     14 C         139.6382  140.8143  169.5550 C.ar    1  UNL1        0.1051
     15 C         140.6240  140.2405  168.5809 C.ar    1  UNL1        0.0933
     16 C         140.2098  139.9737  167.1640 C.ar    1  UNL1        0.2685
     17 O         138.8098  140.2807  166.7214 O.2     1  UNL1       -0.2665
     18 N         141.1955  139.4000  166.1899 N.ar    1  UNL1       -0.2625
     19 O         139.5389  138.3328  160.5227 O.3     1  UNL1       -0.4791
     20 C         140.5325  138.4855  159.4094 C.3     1  UNL1        0.1687
     21 C         141.9954  138.2906  159.6778 C.3     1  UNL1        0.0609
     22 C         142.9890  138.4434  158.5646 C.3     1  UNL1        0.0758
     23 N         142.5198  138.7911  157.1829 N.3     1  UNL1       -0.2737
     24 C         141.0569  138.9860  156.9145 C.3     1  UNL1        0.0758
     25 C         140.0633  138.8332  158.0278 C.3     1  UNL1        0.0609
     26 C         143.5134  138.9439  156.0697 C.3     1  UNL1        0.0575
     27 C         144.3346  137.9986  155.2437 C.3     1  UNL1        0.0160
     28 C         144.9186  139.1599  154.4953 C.3     1  UNL1        0.0028
     29 C         144.0975  140.1051  155.3212 C.3     1  UNL1        0.0160
@<TRIPOS>BOND
     1     7     8    1
     2     8     9   ar
     3     9    10   ar
     4    10    11   ar
     5    11    12   ar
     6    12    13   ar
     7    13    14   ar
     8    14    15   ar
     9    15    16   ar
    10    16    17    2
    11    16    18   ar
    12    18     1    1
    13     1     2   ar
    14     2     3   ar
    15     3     4   ar
    16     4    19    1
    17    19    20    1
    18    20    21    1
    19    21    22    1
    20    22    23    1
    21    23    26    1
    22    26    27    1
    23    27    28    1
    24    28    29    1
    25    23    24    1
    26    24    25    1
    27     4     5   ar
    28     5     6   ar
    29    18     8   ar
    30     6     1   ar
    31    15    10   ar
    32    25    20    1
    33    29    26    1
@<TRIPOS>MOLECULE
*****
 29 33 0 0 0
SMALL
GASTEIGER

@<TRIPOS>ATOM
      1 C         138.9421  140.6200  164.8620 C.ar    1  UNL1        0.0681
      2 C         139.7733  139.8068  163.9144 C.ar    1  UNL1        0.0208
      3 C         139.4338  139.7785  162.4537 C.ar    1  UNL1        0.0384
      4 C         138.2630  140.5632  161.9405 C.ar    1  UNL1        0.1385
      5 C         137.4318  141.3763  162.8881 C.ar    1  UNL1        0.0384
      6 C         137.7713  141.4047  164.3488 C.ar    1  UNL1        0.0208
      7 C         137.8651  138.5022  166.6937 C.3     1  UNL1        0.0723
      8 C         138.7432  139.5894  167.2387 C.ar    1  UNL1        0.1268
      9 N         139.0828  139.6177  168.6994 N.ar    1  UNL1       -0.2317
     10 C         139.9609  140.7049  169.2444 C.ar    1  UNL1        0.0902
     11 C         140.3004  140.7332  170.7052 C.ar    1  UNL1        0.0400
     12 C         141.1785  141.8204  171.2501 C.ar    1  UNL1        0.1004
     13 N         141.7170  142.8793  170.3342 N.ar    1  UNL1       -0.2421
     14 C         141.3774  142.8510  168.8735 C.ar    1  UNL1        0.1051
     15 C         140.4994  141.7638  168.3286 C.ar    1  UNL1        0.0933
     16 C         140.1598  141.7355  166.8677 C.ar    1  UNL1        0.2685
     17 O         140.6983  142.7944  165.9519 O.2     1  UNL1       -0.2665
     18 N         139.2817  140.6483  166.3228 N.ar    1  UNL1       -0.2625
     19 O         137.9234  140.5349  160.4797 O.3     1  UNL1       -0.4791
     20 C         138.7061  141.3714  159.5114 C.3     1  UNL1        0.1687
     21 C         139.3148  140.7388  158.2950 C.3     1  UNL1        0.0609
     22 C         140.0975  141.5753  157.3267 C.3     1  UNL1        0.0758
     23 N         140.2715  143.0444  157.5747 N.3     1  UNL1       -0.2737
     24 C         139.6628  143.6770  158.7910 C.3     1  UNL1        0.0758
     25 C         138.8801  142.8405  159.7593 C.3     1  UNL1        0.0609
     26 C         141.0542  143.8809  156.6064 C.3     1  UNL1        0.0575
     27 C         142.2657  144.7603  156.7023 C.3     1  UNL1        0.0160
     28 C         142.1612  145.0639  155.2371 C.3     1  UNL1        0.0028
     29 C         140.9498  144.1846  155.1412 C.3     1  UNL1        0.0160
@<TRIPOS>BOND
     1     7     8    1
     2     8     9   ar
     3     9    10   ar
     4    10    11   ar
     5    11    12   ar
     6    12    13   ar
     7    13    14   ar
     8    14    15   ar
     9    15    16   ar
    10    16    17    2
    11    16    18   ar
    12    18     1    1
    13     1     2   ar
    14     2     3   ar
    15     3     4   ar
    16     4    19    1
    17    19    20    1
    18    20    21    1
    19    21    22    1
    20    22    23    1
    21    23    26    1
    22    26    27    1
    23    27    28    1
    24    28    29    1
    25    23    24    1
    26    24    25    1
    27     4     5   ar
    28     5     6   ar
    29    18     8   ar
    30     6     1   ar
    31    15    10   ar
    32    25    20    1
    33    29    26    1
@<TRIPOS>MOLECULE
*****
 29 33 0 0 0
SMALL
GASTEIGER

@<TRIPOS>ATOM
      1 C         141.0932  140.3920  164.6259 C.ar    1  UNL1        0.0681
      2 C         141.7554  141.2755  163.6106 C.ar    1  UNL1        0.0208
      3 C         141.3671  141.1786  162.1650 C.ar    1  UNL1        0.0384
      4 C         140.3166  140.1982  161.7347 C.ar    1  UNL1        0.1385
      5 C         139.6543  139.3147  162.7501 C.ar    1  UNL1        0.0384
      6 C         140.0426  139.4117  164.1957 C.ar    1  UNL1        0.0208
      7 C         143.0061  138.4026  165.8018 C.3     1  UNL1        0.0723
      8 C         142.4380  139.4943  166.6595 C.ar    1  UNL1        0.1268
      9 N         142.8264  139.5912  168.1051 N.ar    1  UNL1       -0.2317
     10 C         142.2583  140.6829  168.9628 C.ar    1  UNL1        0.0902
     11 C         142.6467  140.7798  170.4084 C.ar    1  UNL1        0.0400
     12 C         142.0786  141.8715  171.2660 C.ar    1  UNL1        0.1004
     13 N         141.1222  142.8662  170.6780 N.ar    1  UNL1       -0.2421
     14 C         140.7338  142.7693  169.2324 C.ar    1  UNL1        0.1051
     15 C         141.3019  141.6776  168.3748 C.ar    1  UNL1        0.0933
     16 C         140.9135  141.5807  166.9292 C.ar    1  UNL1        0.2685
     17 O         139.9570  142.5754  166.3412 O.2     1  UNL1       -0.2665
     18 N         141.4816  140.4890  166.0716 N.ar    1  UNL1       -0.2625
     19 O         139.9282  140.1012  160.2891 O.3     1  UNL1       -0.4791
     20 C         140.6391  139.1388  159.3844 C.3     1  UNL1        0.1687
     21 C         139.9868  138.6834  158.1128 C.3     1  UNL1        0.0609
     22 C         140.6978  137.7210  157.2081 C.3     1  UNL1        0.0758
     23 N         142.0610  137.2141  157.5752 N.3     1  UNL1       -0.2737
     24 C         142.7133  137.6695  158.8468 C.3     1  UNL1        0.0758
     25 C         142.0023  138.6319  159.7514 C.3     1  UNL1        0.0609
     26 C         142.7720  136.2517  156.6705 C.3     1  UNL1        0.0575
     27 C         142.6548  134.7847  156.3803 C.3     1  UNL1        0.0160
     28 C         143.7774  134.8907  155.3912 C.3     1  UNL1        0.0028
     29 C         143.8946  136.3576  155.6814 C.3     1  UNL1        0.0160
@<TRIPOS>BOND
     1     7     8    1
     2     8     9   ar
     3     9    10   ar
     4    10    11   ar
     5    11    12   ar
     6    12    13   ar
     7    13    14   ar
     8    14    15   ar
     9    15    16   ar
    10    16    17    2
    11    16    18   ar
    12    18     1    1
    13     1     2   ar
    14     2     3   ar
    15     3     4   ar
    16     4    19    1
    17    19    20    1
    18    20    21    1
    19    21    22    1
    20    22    23    1
    21    23    26    1
    22    26    27    1
    23    27    28    1
    24    28    29    1
    25    23    24    1
    26    24    25    1
    27     4     5   ar
    28     5     6   ar
    29    18     8   ar
    30     6     1   ar
    31    15    10   ar
    32    25    20    1
    33    29    26    1
@<TRIPOS>MOLECULE
*****
 29 33 0 0 0
SMALL
GASTEIGER

@<TRIPOS>ATOM
      1 C         140.2543  138.9955  160.3036 C.ar    1  UNL1        0.0681
      2 C         140.1674  140.4741  160.5407 C.ar    1  UNL1        0.0208
      3 C         139.4561  140.9987  161.7526 C.ar    1  UNL1        0.0384
      4 C         138.8317  140.0449  162.7274 C.ar    1  UNL1        0.1385
      5 C         138.9186  138.5663  162.4902 C.ar    1  UNL1        0.0384
      6 C         139.6299  138.0416  161.2783 C.ar    1  UNL1        0.0208
      7 C         143.0866  138.0321  160.5266 C.3     1  UNL1        0.0723
      8 C         142.3818  137.9891  159.2031 C.ar    1  UNL1        0.1268
      9 N         143.0932  137.4645  157.9913 N.ar    1  UNL1       -0.2317
     10 C         142.3884  137.4215  156.6678 C.ar    1  UNL1        0.0902
     11 C         143.0997  136.8968  155.4560 C.ar    1  UNL1        0.0400
     12 C         142.3949  136.8538  154.1326 C.ar    1  UNL1        0.1004
     13 N         140.9787  137.3355  154.0211 N.ar    1  UNL1       -0.2421
     14 C         140.2674  137.8602  155.2330 C.ar    1  UNL1        0.1051
     15 C         140.9722  137.9031  156.5563 C.ar    1  UNL1        0.0933
     16 C         140.2608  138.4278  157.7683 C.ar    1  UNL1        0.2685
     17 O         138.8447  138.9095  157.6568 O.2     1  UNL1       -0.2665
     18 N         140.9656  138.4708  159.0916 N.ar    1  UNL1       -0.2625
     19 O         138.1203  140.5695  163.9393 O.3     1  UNL1       -0.4791
     20 C         138.9078  141.0380  165.1269 C.3     1  UNL1        0.1687
     21 C         139.5014  142.4156  165.1371 C.3     1  UNL1        0.0609
     22 C         140.2888  142.8841  166.3248 C.3     1  UNL1        0.0758
     23 N         140.4826  141.9751  167.5021 N.3     1  UNL1       -0.2737
     24 C         139.8890  140.5976  167.4919 C.3     1  UNL1        0.0758
     25 C         139.1016  140.1291  166.3043 C.3     1  UNL1        0.0609
     26 C         141.2701  142.4436  168.6898 C.3     1  UNL1        0.0575
     27 C         142.7283  142.5162  169.0339 C.3     1  UNL1        0.0160
     28 C         142.3837  143.1062  170.3693 C.3     1  UNL1        0.0028
     29 C         140.9256  143.0336  170.0251 C.3     1  UNL1        0.0160
@<TRIPOS>BOND
     1     7     8    1
     2     8     9   ar
     3     9    10   ar
     4    10    11   ar
     5    11    12   ar
     6    12    13   ar
     7    13    14   ar
     8    14    15   ar
     9    15    16   ar
    10    16    17    2
    11    16    18   ar
    12    18     1    1
    13     1     2   ar
    14     2     3   ar
    15     3     4   ar
    16     4    19    1
    17    19    20    1
    18    20    21    1
    19    21    22    1
    20    22    23    1
    21    23    26    1
    22    26    27    1
    23    27    28    1
    24    28    29    1
    25    23    24    1
    26    24    25    1
    27     4     5   ar
    28     5     6   ar
    29    18     8   ar
    30     6     1   ar
    31    15    10   ar
    32    25    20    1
    33    29    26    1
