@<TRIPOS>MOLECULE
*****
 31 35 0 0 0
SMALL
GASTEIGER

@<TRIPOS>ATOM
      1 O         144.9526  139.7222  163.7148 O.2     1  UNL1       -0.2745
      2 C         143.7316  139.1429  164.3655 C.2     1  UNL1        0.2301
      3 N         142.5064  138.8635  163.5465 N.am    1  UNL1       -0.2764
      4 C         142.5022  139.1633  162.0768 C.3     1  UNL1        0.1107
      5 C         141.2769  138.8838  161.2578 C.3     1  UNL1        0.0939
      6 N         140.0559  138.3046  161.9085 N.3     1  UNL1       -0.2695
      7 C         140.0600  138.0047  163.3783 C.3     1  UNL1        0.0939
      8 C         141.2853  138.2842  164.1972 C.3     1  UNL1        0.1107
      9 C         143.7357  138.8431  165.8353 C.3     1  UNL1        0.1116
     10 C         142.9686  139.7185  166.7814 C.ar    1  UNL1       -0.0130
     11 C         142.5828  141.1088  166.3711 C.ar    1  UNL1       -0.0022
     12 C         141.8157  141.9843  167.3172 C.ar    1  UNL1        0.0190
     13 C         141.4343  141.4696  168.6735 C.ar    1  UNL1        0.0862
     14 C         141.8202  140.0792  169.0837 C.ar    1  UNL1        0.0190
     15 C         142.5873  139.2037  168.1377 C.ar    1  UNL1       -0.0022
     16 N         140.6672  142.3450  169.6196 N.ar    1  UNL1       -0.1886
     17 C         140.5443  143.8376  169.5367 C.ar    1  UNL1        0.2258
     18 N         139.6895  144.2965  170.6806 N.ar    1  UNL1       -0.1045
     19 N         139.2840  143.0875  171.4706 N.ar    1  UNL1       -0.0222
     20 N         139.8883  141.8814  170.8148 N.ar    1  UNL1       -0.0385
     21 C         138.8307  138.0251  161.0895 C.3     1  UNL1        0.0769
     22 C         137.6651  138.9680  161.1379 C.3     1  UNL1        0.0437
     23 C         137.8757  140.4018  161.5252 C.ar    1  UNL1       -0.0210
     24 C         138.3294  141.3970  160.4988 C.ar    1  UNL1       -0.0045
     25 C         138.5401  142.8307  160.8860 C.ar    1  UNL1       -0.0024
     26 C         138.2971  143.2693  162.2997 C.ar    1  UNL1        0.0056
     27 C         137.8434  142.2740  163.3262 C.ar    1  UNL1        0.0054
     28 C         137.6327  140.8403  162.9390 C.ar    1  UNL1       -0.0063
     29 C         137.6855  142.9945  164.6324 C.3     1  UNL1        0.1688
     30 O         138.0415  144.4350  164.4131 O.3     1  UNL1       -0.3443
     31 C         138.4195  144.6049  162.9714 C.3     1  UNL1        0.1688
@<TRIPOS>BOND
     1     1     2    2
     2     2     9    1
     3     9    10    1
     4    10    11   ar
     5    11    12   ar
     6    12    13   ar
     7    13    16    1
     8    16    17   ar
     9    17    18   ar
    10    18    19   ar
    11    19    20   ar
    12    13    14   ar
    13    14    15   ar
    14     2     3   am
    15     3     4    1
    16     4     5    1
    17     5     6    1
    18     6    21    1
    19    21    22    1
    20    22    23    1
    21    23    24   ar
    22    24    25   ar
    23    25    26   ar
    24    26    27   ar
    25    27    28   ar
    26    27    29    1
    27    29    30    1
    28    30    31    1
    29     6     7    1
    30     7     8    1
    31    15    10   ar
    32     8     3    1
    33    20    16   ar
    34    28    23   ar
    35    31    26    1
@<TRIPOS>MOLECULE
*****
 31 35 0 0 0
SMALL
GASTEIGER

@<TRIPOS>ATOM
      1 O         140.3136  137.2056  162.8736 O.2     1  UNL1       -0.2745
      2 C         139.5031  138.4218  163.2110 C.2     1  UNL1        0.2301
      3 N         139.6171  139.6569  162.3675 N.am    1  UNL1       -0.2764
      4 C         140.5417  139.6758  161.1864 C.3     1  UNL1        0.1107
      5 C         140.6557  140.9109  160.3429 C.3     1  UNL1        0.0939
      6 N         139.8451  142.1271  160.6804 N.3     1  UNL1       -0.2695
      7 C         138.9205  142.1082  161.8614 C.3     1  UNL1        0.0939
      8 C         138.8065  140.8730  162.7049 C.3     1  UNL1        0.1107
      9 C         138.5785  138.4029  164.3920 C.3     1  UNL1        0.1116
     10 C         139.0293  138.9675  165.7065 C.ar    1  UNL1       -0.0130
     11 C         138.0840  139.0047  166.8705 C.ar    1  UNL1       -0.0022
     12 C         138.5349  139.5693  168.1852 C.ar    1  UNL1        0.0190
     13 C         139.9310  140.0965  168.3357 C.ar    1  UNL1        0.0862
     14 C         140.8763  140.0592  167.1716 C.ar    1  UNL1        0.0190
     15 C         140.4255  139.4947  165.8570 C.ar    1  UNL1       -0.0022
     16 N         140.3819  140.6611  169.6502 N.ar    1  UNL1       -0.1886
     17 C         141.6787  140.3594  170.3410 C.ar    1  UNL1        0.2258
     18 N         141.7134  141.1383  171.6224 N.ar    1  UNL1       -0.1045
     19 N         140.4380  141.9215  171.7236 N.ar    1  UNL1       -0.0222
     20 N         139.6152  141.6264  170.5046 N.ar    1  UNL1       -0.0385
     21 C         139.9591  143.3622  159.8368 C.3     1  UNL1        0.0769
     22 C         140.9708  144.4148  160.1812 C.3     1  UNL1        0.0437
     23 C         141.7811  144.2938  161.4377 C.ar    1  UNL1       -0.0210
     24 C         141.4088  145.0945  162.6502 C.ar    1  UNL1       -0.0045
     25 C         142.2190  144.9735  163.9067 C.ar    1  UNL1       -0.0024
     26 C         143.4016  144.0519  163.9507 C.ar    1  UNL1        0.0056
     27 C         143.7740  143.2511  162.7382 C.ar    1  UNL1        0.0054
     28 C         142.9637  143.3721  161.4817 C.ar    1  UNL1       -0.0063
     29 C         144.9833  142.4312  163.0775 C.3     1  UNL1        0.1688
     30 O         145.3584  142.7251  164.4998 O.3     1  UNL1       -0.3443
     31 C         144.3809  143.7268  165.0395 C.3     1  UNL1        0.1688
@<TRIPOS>BOND
     1     1     2    2
     2     2     9    1
     3     9    10    1
     4    10    11   ar
     5    11    12   ar
     6    12    13   ar
     7    13    16    1
     8    16    17   ar
     9    17    18   ar
    10    18    19   ar
    11    19    20   ar
    12    13    14   ar
    13    14    15   ar
    14     2     3   am
    15     3     4    1
    16     4     5    1
    17     5     6    1
    18     6    21    1
    19    21    22    1
    20    22    23    1
    21    23    24   ar
    22    24    25   ar
    23    25    26   ar
    24    26    27   ar
    25    27    28   ar
    26    27    29    1
    27    29    30    1
    28    30    31    1
    29     6     7    1
    30     7     8    1
    31    15    10   ar
    32     8     3    1
    33    20    16   ar
    34    28    23   ar
    35    31    26    1
@<TRIPOS>MOLECULE
*****
 31 35 0 0 0
SMALL
GASTEIGER

@<TRIPOS>ATOM
      1 O         136.9841  141.4765  162.9394 O.2     1  UNL1       -0.2745
      2 C         138.0986  140.4954  163.1522 C.2     1  UNL1        0.2301
      3 N         139.2707  140.4772  162.2164 N.am    1  UNL1       -0.2764
      4 C         139.3284  141.4401  161.0677 C.3     1  UNL1        0.1107
      5 C         140.5006  141.4219  160.1319 C.3     1  UNL1        0.0939
      6 N         141.6150  140.4407  160.3448 N.3     1  UNL1       -0.2695
      7 C         141.5574  139.4777  161.4934 C.3     1  UNL1        0.0939
      8 C         140.3851  139.4960  162.4292 C.3     1  UNL1        0.1107
      9 C         138.0409  139.5324  164.3008 C.3     1  UNL1        0.1116
     10 C         138.5953  139.9259  165.6379 C.ar    1  UNL1       -0.0130
     11 C         139.5200  141.1017  165.7497 C.ar    1  UNL1       -0.0022
     12 C         140.0745  141.4953  167.0868 C.ar    1  UNL1        0.0190
     13 C         139.7043  140.7130  168.3120 C.ar    1  UNL1        0.0862
     14 C         138.7796  139.5372  168.2001 C.ar    1  UNL1        0.0190
     15 C         138.2252  139.1436  166.8630 C.ar    1  UNL1       -0.0022
     16 N         140.2587  141.1065  169.6491 N.ar    1  UNL1       -0.1886
     17 C         141.6195  140.7595  170.1761 C.ar    1  UNL1        0.2258
     18 N         141.7514  141.3547  171.5466 N.ar    1  UNL1       -0.1045
     19 N         140.4721  142.0696  171.8667 N.ar    1  UNL1       -0.0222
     20 N         139.5496  141.9161  170.6939 N.ar    1  UNL1       -0.0385
     21 C         142.7872  140.4226  159.4089 C.3     1  UNL1        0.0769
     22 C         144.0349  141.1798  159.7549 C.3     1  UNL1        0.0437
     23 C         144.2142  141.7396  161.1350 C.ar    1  UNL1       -0.0210
     24 C         144.7721  140.8768  162.2277 C.ar    1  UNL1       -0.0045
     25 C         144.9513  141.4366  163.6077 C.ar    1  UNL1       -0.0024
     26 C         144.5726  142.8593  163.8950 C.ar    1  UNL1        0.0056
     27 C         144.0147  143.7222  162.8023 C.ar    1  UNL1        0.0054
     28 C         143.8355  143.1624  161.4222 C.ar    1  UNL1       -0.0063
     29 C         143.7328  145.0774  163.3800 C.3     1  UNL1        0.1688
     30 O         144.1165  145.0521  164.8299 O.3     1  UNL1       -0.3443
     31 C         144.6355  143.6812  165.1482 C.3     1  UNL1        0.1688
@<TRIPOS>BOND
     1     1     2    2
     2     2     9    1
     3     9    10    1
     4    10    11   ar
     5    11    12   ar
     6    12    13   ar
     7    13    16    1
     8    16    17   ar
     9    17    18   ar
    10    18    19   ar
    11    19    20   ar
    12    13    14   ar
    13    14    15   ar
    14     2     3   am
    15     3     4    1
    16     4     5    1
    17     5     6    1
    18     6    21    1
    19    21    22    1
    20    22    23    1
    21    23    24   ar
    22    24    25   ar
    23    25    26   ar
    24    26    27   ar
    25    27    28   ar
    26    27    29    1
    27    29    30    1
    28    30    31    1
    29     6     7    1
    30     7     8    1
    31    15    10   ar
    32     8     3    1
    33    20    16   ar
    34    28    23   ar
    35    31    26    1
@<TRIPOS>MOLECULE
*****
 31 35 0 0 0
SMALL
GASTEIGER

@<TRIPOS>ATOM
      1 O         139.1743  137.1458  165.2042 O.2     1  UNL1       -0.2745
      2 C         138.6911  138.5606  165.3264 C.2     1  UNL1        0.2301
      3 N         138.5410  139.4105  164.0996 N.am    1  UNL1       -0.2764
      4 C         138.8741  138.8457  162.7504 C.3     1  UNL1        0.1107
      5 C         138.7239  139.6956  161.5237 C.3     1  UNL1        0.0939
      6 N         138.2407  141.1104  161.6459 N.3     1  UNL1       -0.2695
      7 C         137.9077  141.6753  162.9950 C.3     1  UNL1        0.0939
      8 C         138.0578  140.8252  164.2218 C.3     1  UNL1        0.1107
      9 C         138.3581  139.1254  166.6755 C.3     1  UNL1        0.1116
     10 C         139.3716  139.9470  167.4155 C.ar    1  UNL1       -0.0130
     11 C         139.1835  140.2326  168.8760 C.ar    1  UNL1       -0.0022
     12 C         140.1971  141.0542  169.6162 C.ar    1  UNL1        0.0190
     13 C         141.3987  141.5901  168.8959 C.ar    1  UNL1        0.0862
     14 C         141.5867  141.3044  167.4353 C.ar    1  UNL1        0.0190
     15 C         140.5732  140.4829  166.6952 C.ar    1  UNL1       -0.0022
     16 N         142.4123  142.4117  169.6359 N.ar    1  UNL1       -0.1886
     17 C         143.9025  142.2978  169.5084 C.ar    1  UNL1        0.2258
     18 N         144.5247  143.3071  170.4271 N.ar    1  UNL1       -0.1045
     19 N         143.4191  144.0448  171.1225 N.ar    1  UNL1       -0.0222
     20 N         142.1135  143.4913  170.6334 N.ar    1  UNL1       -0.0385
     21 C         138.0906  141.9603  160.4191 C.3     1  UNL1        0.0769
     22 C         139.2267  142.8275  159.9639 C.3     1  UNL1        0.0437
     23 C         140.1475  143.4481  160.9725 C.ar    1  UNL1       -0.0210
     24 C         139.7438  144.7063  161.6823 C.ar    1  UNL1       -0.0045
     25 C         140.6645  145.3268  162.6909 C.ar    1  UNL1       -0.0024
     26 C         141.9889  144.6890  162.9897 C.ar    1  UNL1        0.0056
     27 C         142.3925  143.4307  162.2799 C.ar    1  UNL1        0.0054
     28 C         141.4719  142.8102  161.2713 C.ar    1  UNL1       -0.0063
     29 C         143.7500  143.0323  162.7784 C.3     1  UNL1        0.1688
     30 O         144.1853  144.0445  163.7963 O.3     1  UNL1       -0.3443
     31 C         143.0969  145.0683  163.9269 C.3     1  UNL1        0.1688
@<TRIPOS>BOND
     1     1     2    2
     2     2     9    1
     3     9    10    1
     4    10    11   ar
     5    11    12   ar
     6    12    13   ar
     7    13    16    1
     8    16    17   ar
     9    17    18   ar
    10    18    19   ar
    11    19    20   ar
    12    13    14   ar
    13    14    15   ar
    14     2     3   am
    15     3     4    1
    16     4     5    1
    17     5     6    1
    18     6    21    1
    19    21    22    1
    20    22    23    1
    21    23    24   ar
    22    24    25   ar
    23    25    26   ar
    24    26    27   ar
    25    27    28   ar
    26    27    29    1
    27    29    30    1
    28    30    31    1
    29     6     7    1
    30     7     8    1
    31    15    10   ar
    32     8     3    1
    33    20    16   ar
    34    28    23   ar
    35    31    26    1
@<TRIPOS>MOLECULE
*****
 31 35 0 0 0
SMALL
GASTEIGER

@<TRIPOS>ATOM
      1 O         146.1170  141.6687  163.5992 O.2     1  UNL1       -0.2745
      2 C         144.8961  140.8803  163.2280 C.2     1  UNL1        0.2301
      3 N         144.0379  141.3229  162.0802 N.am    1  UNL1       -0.2764
      4 C         144.4005  142.5539  161.3035 C.3     1  UNL1        0.1107
      5 C         143.5422  142.9964  160.1557 C.3     1  UNL1        0.0939
      6 N         142.3214  142.2080  159.7844 N.3     1  UNL1       -0.2695
      7 C         141.9587  140.9770  160.5610 C.3     1  UNL1        0.0939
      8 C         142.8170  140.5345  161.7089 C.3     1  UNL1        0.1107
      9 C         144.5334  139.6493  164.0046 C.3     1  UNL1        0.1116
     10 C         143.6803  139.7619  165.2331 C.ar    1  UNL1       -0.0130
     11 C         143.7186  138.6827  166.2743 C.ar    1  UNL1       -0.0022
     12 C         142.8654  138.7953  167.5030 C.ar    1  UNL1        0.0190
     13 C         141.9739  139.9870  167.6904 C.ar    1  UNL1        0.0862
     14 C         141.9356  141.0661  166.6491 C.ar    1  UNL1        0.0190
     15 C         142.7888  140.9535  165.4205 C.ar    1  UNL1       -0.0022
     16 N         141.1208  140.0996  168.9189 N.ar    1  UNL1       -0.1886
     17 C         141.5847  140.5334  170.2778 C.ar    1  UNL1        0.2258
     18 N         140.4045  140.5000  171.2030 N.ar    1  UNL1       -0.1045
     19 N         139.2111  140.0457  170.4159 N.ar    1  UNL1       -0.0222
     20 N         139.6539  139.7982  169.0043 N.ar    1  UNL1       -0.0385
     21 C         141.4631  142.6506  158.6366 C.3     1  UNL1        0.0769
     22 C         140.3137  143.5842  158.8759 C.3     1  UNL1        0.0437
     23 C         139.9231  143.9492  160.2775 C.ar    1  UNL1       -0.0210
     24 C         140.4767  145.1908  160.9112 C.ar    1  UNL1       -0.0045
     25 C         140.0861  145.5557  162.3127 C.ar    1  UNL1       -0.0024
     26 C         139.1419  144.6789  163.0805 C.ar    1  UNL1        0.0056
     27 C         138.5883  143.4371  162.4468 C.ar    1  UNL1        0.0054
     28 C         138.9789  143.0722  161.0453 C.ar    1  UNL1       -0.0063
     29 C         137.6843  142.7723  163.4422 C.3     1  UNL1        0.1688
     30 O         137.6792  143.6032  164.6910 O.3     1  UNL1       -0.3443
     31 C         138.5801  144.7815  164.4675 C.3     1  UNL1        0.1688
@<TRIPOS>BOND
     1     1     2    2
     2     2     9    1
     3     9    10    1
     4    10    11   ar
     5    11    12   ar
     6    12    13   ar
     7    13    16    1
     8    16    17   ar
     9    17    18   ar
    10    18    19   ar
    11    19    20   ar
    12    13    14   ar
    13    14    15   ar
    14     2     3   am
    15     3     4    1
    16     4     5    1
    17     5     6    1
    18     6    21    1
    19    21    22    1
    20    22    23    1
    21    23    24   ar
    22    24    25   ar
    23    25    26   ar
    24    26    27   ar
    25    27    28   ar
    26    27    29    1
    27    29    30    1
    28    30    31    1
    29     6     7    1
    30     7     8    1
    31    15    10   ar
    32     8     3    1
    33    20    16   ar
    34    28    23   ar
    35    31    26    1
@<TRIPOS>MOLECULE
*****
 31 35 0 0 0
SMALL
GASTEIGER

@<TRIPOS>ATOM
      1 O         145.3642  140.9174  163.2452 O.2     1  UNL1       -0.2745
      2 C         144.1900  140.0230  163.5122 C.2     1  UNL1        0.2301
      3 N         143.0821  139.9193  162.5063 N.am    1  UNL1       -0.2764
      4 C         143.1483  140.7101  161.2333 C.3     1  UNL1        0.1107
      5 C         142.0404  140.6064  160.2275 C.3     1  UNL1        0.0939
      6 N         140.8663  139.7119  160.4945 N.3     1  UNL1       -0.2695
      7 C         140.8000  138.9211  161.7674 C.3     1  UNL1        0.0939
      8 C         141.9080  139.0249  162.7733 C.3     1  UNL1        0.1107
      9 C         144.1237  139.2322  164.7851 C.3     1  UNL1        0.1116
     10 C         143.4140  139.7943  165.9810 C.ar    1  UNL1       -0.0130
     11 C         143.0775  138.9039  167.1403 C.ar    1  UNL1       -0.0022
     12 C         142.3678  139.4660  168.3364 C.ar    1  UNL1        0.0190
     13 C         141.9946  140.9183  168.3731 C.ar    1  UNL1        0.0862
     14 C         142.3312  141.8087  167.2137 C.ar    1  UNL1        0.0190
     15 C         143.0409  141.2466  166.0177 C.ar    1  UNL1       -0.0022
     16 N         141.2849  141.4804  169.5691 N.ar    1  UNL1       -0.1886
     17 C         141.7431  141.3803  170.9939 C.ar    1  UNL1        0.2258
     18 N         140.7338  142.0794  171.8555 N.ar    1  UNL1       -0.1045
     19 N         139.6517  142.6116  170.9633 N.ar    1  UNL1       -0.0222
     20 N         139.9924  142.2414  169.5502 N.ar    1  UNL1       -0.0385
     21 C         139.7584  139.6083  159.4886 C.3     1  UNL1        0.0769
     22 C         138.5232  140.4450  159.6444 C.3     1  UNL1        0.0437
     23 C         138.3135  141.2473  160.8944 C.ar    1  UNL1       -0.0210
     24 C         137.5153  140.6748  162.0280 C.ar    1  UNL1       -0.0045
     25 C         137.3056  141.4771  163.2779 C.ar    1  UNL1       -0.0024
     26 C         137.8942  142.8519  163.3943 C.ar    1  UNL1        0.0056
     27 C         138.6924  143.4244  162.2607 C.ar    1  UNL1        0.0054
     28 C         138.9021  142.6222  161.0107 C.ar    1  UNL1       -0.0063
     29 C         139.1471  144.7968  162.6606 C.3     1  UNL1        0.1688
     30 O         138.6299  145.0724  164.0413 O.3     1  UNL1       -0.3443
     31 C         137.8555  143.8704  164.4948 C.3     1  UNL1        0.1688
@<TRIPOS>BOND
     1     1     2    2
     2     2     9    1
     3     9    10    1
     4    10    11   ar
     5    11    12   ar
     6    12    13   ar
     7    13    16    1
     8    16    17   ar
     9    17    18   ar
    10    18    19   ar
    11    19    20   ar
    12    13    14   ar
    13    14    15   ar
    14     2     3   am
    15     3     4    1
    16     4     5    1
    17     5     6    1
    18     6    21    1
    19    21    22    1
    20    22    23    1
    21    23    24   ar
    22    24    25   ar
    23    25    26   ar
    24    26    27   ar
    25    27    28   ar
    26    27    29    1
    27    29    30    1
    28    30    31    1
    29     6     7    1
    30     7     8    1
    31    15    10   ar
    32     8     3    1
    33    20    16   ar
    34    28    23   ar
    35    31    26    1
@<TRIPOS>MOLECULE
*****
 31 35 0 0 0
SMALL
GASTEIGER

@<TRIPOS>ATOM
      1 O         136.9517  141.4966  163.1593 O.2     1  UNL1       -0.2745
      2 C         137.9473  140.4246  163.4905 C.2     1  UNL1        0.2301
      3 N         138.8572  139.8908  162.4242 N.am    1  UNL1       -0.2764
      4 C         138.7716  140.4289  161.0266 C.3     1  UNL1        0.1107
      5 C         139.6816  139.8950  159.9604 C.3     1  UNL1        0.0939
      6 N         140.6771  138.8230  160.2916 N.3     1  UNL1       -0.2695
      7 C         140.7627  138.2848  161.6891 C.3     1  UNL1        0.0939
      8 C         139.8527  138.8188  162.7554 C.3     1  UNL1        0.1107
      9 C         138.0329  139.8864  164.8880 C.3     1  UNL1        0.1116
     10 C         138.9894  140.4964  165.8693 C.ar    1  UNL1       -0.0130
     11 C         139.6952  141.7763  165.5320 C.ar    1  UNL1       -0.0022
     12 C         140.6518  142.3864  166.5132 C.ar    1  UNL1        0.0190
     13 C         140.9027  141.7165  167.8317 C.ar    1  UNL1        0.0862
     14 C         140.1969  140.4366  168.1689 C.ar    1  UNL1        0.0190
     15 C         139.2403  139.8265  167.1877 C.ar    1  UNL1       -0.0022
     16 N         141.8593  142.3265  168.8129 N.ar    1  UNL1       -0.1886
     17 C         141.4955  143.2297  169.9539 C.ar    1  UNL1        0.2258
     18 N         142.7590  143.6018  170.6715 N.ar    1  UNL1       -0.1045
     19 N         143.9038  142.9285  169.9741 N.ar    1  UNL1       -0.0222
     20 N         143.3476  142.1404  168.8254 N.ar    1  UNL1       -0.0385
     21 C         141.5870  138.2892  159.2253 C.3     1  UNL1        0.0769
     22 C         143.0203  138.7285  159.1734 C.3     1  UNL1        0.0437
     23 C         143.5094  139.8031  160.0987 C.ar    1  UNL1       -0.0210
     24 C         143.4089  141.2440  159.6943 C.ar    1  UNL1       -0.0045
     25 C         143.8979  142.3186  160.6196 C.ar    1  UNL1       -0.0024
     26 C         144.4875  141.9522  161.9493 C.ar    1  UNL1        0.0056
     27 C         144.5880  140.5113  162.3538 C.ar    1  UNL1        0.0054
     28 C         144.0990  139.4367  161.4285 C.ar    1  UNL1       -0.0063
     29 C         145.2113  140.4548  163.7169 C.3     1  UNL1        0.1688
     30 O         145.4960  141.8609  164.1550 O.3     1  UNL1       -0.3443
     31 C         145.0486  142.7864  163.0625 C.3     1  UNL1        0.1688
@<TRIPOS>BOND
     1     1     2    2
     2     2     9    1
     3     9    10    1
     4    10    11   ar
     5    11    12   ar
     6    12    13   ar
     7    13    16    1
     8    16    17   ar
     9    17    18   ar
    10    18    19   ar
    11    19    20   ar
    12    13    14   ar
    13    14    15   ar
    14     2     3   am
    15     3     4    1
    16     4     5    1
    17     5     6    1
    18     6    21    1
    19    21    22    1
    20    22    23    1
    21    23    24   ar
    22    24    25   ar
    23    25    26   ar
    24    26    27   ar
    25    27    28   ar
    26    27    29    1
    27    29    30    1
    28    30    31    1
    29     6     7    1
    30     7     8    1
    31    15    10   ar
    32     8     3    1
    33    20    16   ar
    34    28    23   ar
    35    31    26    1
@<TRIPOS>MOLECULE
*****
 31 35 0 0 0
SMALL
GASTEIGER

@<TRIPOS>ATOM
      1 O         137.9813  144.6323  162.4707 O.2     1  UNL1       -0.2745
      2 C         138.1747  143.1449  162.4662 C.2     1  UNL1        0.2301
      3 N         139.0007  142.4992  161.3935 N.am    1  UNL1       -0.2764
      4 C         139.6333  143.3410  160.3251 C.3     1  UNL1        0.1107
      5 C         140.4593  142.6952  159.2524 C.3     1  UNL1        0.0939
      6 N         140.6527  141.2078  159.2479 N.3     1  UNL1       -0.2695
      7 C         140.0202  140.3660  160.3162 C.3     1  UNL1        0.0939
      8 C         139.1942  141.0118  161.3890 C.3     1  UNL1        0.1107
      9 C         137.5422  142.3031  163.5346 C.3     1  UNL1        0.1116
     10 C         138.3816  141.7475  164.6466 C.ar    1  UNL1       -0.0130
     11 C         139.3951  142.6182  165.3282 C.ar    1  UNL1       -0.0022
     12 C         140.2346  142.0626  166.4403 C.ar    1  UNL1        0.0190
     13 C         140.0604  140.6363  166.8709 C.ar    1  UNL1        0.0862
     14 C         139.0468  139.7657  166.1893 C.ar    1  UNL1        0.0190
     15 C         138.2074  140.3212  165.0772 C.ar    1  UNL1       -0.0022
     16 N         140.8997  140.0807  167.9830 N.ar    1  UNL1       -0.1886
     17 C         142.3464  139.6959  167.8881 C.ar    1  UNL1        0.2258
     18 N         142.7805  139.1897  169.2317 N.ar    1  UNL1       -0.1045
     19 N         141.6021  139.2618  170.1571 N.ar    1  UNL1       -0.0222
     20 N         140.4398  139.8125  169.3852 N.ar    1  UNL1       -0.0385
     21 C         141.4787  140.5621  158.1751 C.3     1  UNL1        0.0769
     22 C         142.9484  140.3492  158.3862 C.3     1  UNL1        0.0437
     23 C         143.5930  140.7858  159.6685 C.ar    1  UNL1       -0.0210
     24 C         144.1321  142.1793  159.8004 C.ar    1  UNL1       -0.0045
     25 C         144.7766  142.6159  161.0825 C.ar    1  UNL1       -0.0024
     26 C         144.8821  141.6590  162.2328 C.ar    1  UNL1        0.0056
     27 C         144.3430  140.2654  162.1009 C.ar    1  UNL1        0.0054
     28 C         143.6985  139.8288  160.8187 C.ar    1  UNL1       -0.0063
     29 C         144.5882  139.5490  163.3957 C.3     1  UNL1        0.1688
     30 O         145.2788  140.4998  164.3279 O.3     1  UNL1       -0.3443
     31 C         145.4605  141.8039  163.6092 C.3     1  UNL1        0.1688
@<TRIPOS>BOND
     1     1     2    2
     2     2     9    1
     3     9    10    1
     4    10    11   ar
     5    11    12   ar
     6    12    13   ar
     7    13    16    1
     8    16    17   ar
     9    17    18   ar
    10    18    19   ar
    11    19    20   ar
    12    13    14   ar
    13    14    15   ar
    14     2     3   am
    15     3     4    1
    16     4     5    1
    17     5     6    1
    18     6    21    1
    19    21    22    1
    20    22    23    1
    21    23    24   ar
    22    24    25   ar
    23    25    26   ar
    24    26    27   ar
    25    27    28   ar
    26    27    29    1
    27    29    30    1
    28    30    31    1
    29     6     7    1
    30     7     8    1
    31    15    10   ar
    32     8     3    1
    33    20    16   ar
    34    28    23   ar
    35    31    26    1
@<TRIPOS>MOLECULE
*****
 31 35 0 0 0
SMALL
GASTEIGER

@<TRIPOS>ATOM
      1 O         145.0334  141.8799  162.7199 O.2     1  UNL1       -0.2745
      2 C         144.5861  140.4553  162.8630 C.2     1  UNL1        0.2301
      3 N         143.9903  139.7349  161.6899 N.am    1  UNL1       -0.2764
      4 C         143.8418  140.4390  160.3738 C.3     1  UNL1        0.1107
      5 C         143.2460  139.7186  159.2008 C.3     1  UNL1        0.0939
      6 N         142.7986  138.2940  159.3439 N.3     1  UNL1       -0.2695
      7 C         142.9471  137.5899  160.6600 C.3     1  UNL1        0.0939
      8 C         143.5429  138.3104  161.8330 C.3     1  UNL1        0.1107
      9 C         144.7345  139.7511  164.1791 C.3     1  UNL1        0.1116
     10 C         143.7663  140.0277  165.2909 C.ar    1  UNL1       -0.0130
     11 C         143.2799  138.9048  166.1584 C.ar    1  UNL1       -0.0022
     12 C         142.3117  139.1812  167.2703 C.ar    1  UNL1        0.0190
     13 C         141.8300  140.5806  167.5147 C.ar    1  UNL1        0.0862
     14 C         142.3165  141.7035  166.6472 C.ar    1  UNL1        0.0190
     15 C         143.2847  141.4270  165.5353 C.ar    1  UNL1       -0.0022
     16 N         140.8619  140.8571  168.6265 N.ar    1  UNL1       -0.1886
     17 C         140.6384  142.1828  169.2918 C.ar    1  UNL1        0.2258
     18 N         139.5857  142.0015  170.3447 N.ar    1  UNL1       -0.1045
     19 N         139.1584  140.5636  170.3303 N.ar    1  UNL1       -0.0222
     20 N         139.9472  139.8565  169.2683 N.ar    1  UNL1       -0.0385
     21 C         142.2028  137.5736  158.1708 C.3     1  UNL1        0.0769
     22 C         143.0938  136.8614  157.1967 C.3     1  UNL1        0.0437
     23 C         142.7105  135.5051  156.6829 C.ar    1  UNL1       -0.0210
     24 C         141.6807  135.3770  155.5999 C.ar    1  UNL1       -0.0045
     25 C         141.2974  134.0208  155.0861 C.ar    1  UNL1       -0.0024
     26 C         141.9440  132.7929  155.6553 C.ar    1  UNL1        0.0056
     27 C         142.9739  132.9211  156.7384 C.ar    1  UNL1        0.0054
     28 C         143.3572  134.2772  157.2522 C.ar    1  UNL1       -0.0063
     29 C         143.4368  131.5418  157.1035 C.3     1  UNL1        0.1688
     30 O         142.6929  130.5612  156.2461 O.3     1  UNL1       -0.3443
     31 C         141.7704  131.3344  155.3511 C.3     1  UNL1        0.1688
@<TRIPOS>BOND
     1     1     2    2
     2     2     9    1
     3     9    10    1
     4    10    11   ar
     5    11    12   ar
     6    12    13   ar
     7    13    16    1
     8    16    17   ar
     9    17    18   ar
    10    18    19   ar
    11    19    20   ar
    12    13    14   ar
    13    14    15   ar
    14     2     3   am
    15     3     4    1
    16     4     5    1
    17     5     6    1
    18     6    21    1
    19    21    22    1
    20    22    23    1
    21    23    24   ar
    22    24    25   ar
    23    25    26   ar
    24    26    27   ar
    25    27    28   ar
    26    27    29    1
    27    29    30    1
    28    30    31    1
    29     6     7    1
    30     7     8    1
    31    15    10   ar
    32     8     3    1
    33    20    16   ar
    34    28    23   ar
    35    31    26    1
