@<TRIPOS>MOLECULE
*****
 40 44 0 0 0
SMALL
GASTEIGER

@<TRIPOS>ATOM
      1 C         141.6475  144.6136  162.9224 C.3     1  UNL1        0.0162
      2 C         142.5498  144.5699  164.1198 C.3     1  UNL1        0.0028
      3 C         143.8508  143.8263  164.0519 C.3     1  UNL1        0.0158
      4 C         144.2495  143.1266  162.7864 C.3     1  UNL1        0.0543
      5 C         143.3471  143.1703  161.5889 C.3     1  UNL1        0.0158
      6 C         142.0462  143.9139  161.6569 C.3     1  UNL1        0.0028
      7 C         140.3466  145.3571  162.9905 C.3     1  UNL1        0.0737
      8 N         140.1467  146.5958  162.1684 N.3     1  UNL1       -0.3206
      9 H         139.2123  146.9685  162.3368 H       1  UNL1        0.1189
     10 H         140.2488  146.3677  161.1795 H       1  UNL1        0.1189
     11 C         139.2453  144.8620  163.8806 C.3     1  UNL1        0.1245
     12 C         140.4154  142.3226  167.4065 C.ar    1  UNL1        0.1675
     13 C         140.0254  143.1690  166.2312 C.ar    1  UNL1        0.0580
     14 C         139.2875  142.5566  165.0778 C.ar    1  UNL1        0.0833
     15 C         138.9396  141.0977  165.0997 C.ar    1  UNL1        0.0997
     16 C         139.3296  140.2512  166.2751 C.ar    1  UNL1        0.0533
     17 C         140.0675  140.8637  167.4284 C.ar    1  UNL1        0.1754
     18 F         140.4576  140.0172  168.6038 F       1  UNL1       -0.2009
     19 N         138.2016  140.4852  163.9464 N.ar    1  UNL1       -0.2373
     20 C         137.8116  141.3316  162.7710 C.ar    1  UNL1        0.1594
     21 C         138.1595  142.7906  162.7491 C.ar    1  UNL1        0.2803
     22 O         137.7695  143.6370  161.5738 O.2     1  UNL1       -0.2653
     23 N         138.8974  143.4031  163.9025 N.ar    1  UNL1       -0.2913
     24 C         140.3920  143.5052  169.7197 C.3     1  UNL1        0.2526
     25 O         141.1534  142.9351  168.5599 O.3     1  UNL1       -0.4691
     26 N         145.5504  142.3831  162.7183 N.3     1  UNL1       -0.2922
     27 H         146.2643  143.0031  163.1008 H       1  UNL1        0.1236
     28 C         145.6992  141.0662  163.4209 C.3     1  UNL1        0.1353
     29 C         144.4938  140.2091  163.6711 C.ar    1  UNL1        0.1567
     30 N         144.2974  139.5638  165.0108 N.ar    1  UNL1       -0.2245
     31 C         143.0921  138.7068  165.2610 C.ar    1  UNL1        0.1400
     32 C         142.0831  138.4950  164.1714 C.ar    1  UNL1        0.1898
     33 C         142.2795  139.1404  162.8317 C.ar    1  UNL1        0.1715
     34 N         143.4849  139.9974  162.5815 N.ar    1  UNL1       -0.2113
     35 N         141.2706  138.9286  161.7421 N.am    1  UNL1       -0.2638
     36 C         140.0652  138.0716  161.9923 C.2     1  UNL1        0.2718
     37 O         139.0562  137.8599  160.9027 O.2     1  UNL1       -0.2707
     38 C         139.8688  137.4263  163.3321 C.3     1  UNL1        0.2899
     39 O         140.8777  137.6380  164.4216 O.3     1  UNL1       -0.4612
     40 H         141.3995  139.3522  160.8627 H       1  UNL1        0.1565
@<TRIPOS>BOND
     1    24    25    1
     2    25    12    1
     3    12    13   ar
     4    13    14   ar
     5    14    15   ar
     6    15    16   ar
     7    16    17   ar
     8    17    18    1
     9    15    19   ar
    10    19    20   ar
    11    20    21   ar
    12    21    22    2
    13    21    23   ar
    14    23    11    1
    15    11     7    1
    16     7     8    1
    17     7     1    1
    18     1     2    1
    19     2     3    1
    20     3     4    1
    21     4    26    1
    22    26    28    1
    23    28    29    1
    24    29    30   ar
    25    30    31   ar
    26    31    32   ar
    27    32    33   ar
    28    33    34   ar
    29    33    35    1
    30    35    36   am
    31    36    37    2
    32    36    38    1
    33    38    39    1
    34     4     5    1
    35     5     6    1
    36    17    12   ar
    37     6     1    1
    38    23    14   ar
    39    34    29   ar
    40    39    32    1
    41     8     9    1
    42     8    10    1
    43    26    27    1
    44    35    40    1
@<TRIPOS>MOLECULE
*****
 40 44 0 0 0
SMALL
GASTEIGER

@<TRIPOS>ATOM
      1 C         143.5449  142.2301  163.7161 C.3     1  UNL1        0.0162
      2 C         143.7211  142.9586  162.4168 C.3     1  UNL1        0.0028
      3 C         142.9485  144.2167  162.1516 C.3     1  UNL1        0.0158
      4 C         141.9997  144.7463  163.1857 C.3     1  UNL1        0.0543
      5 C         141.8235  144.0178  164.4850 C.3     1  UNL1        0.0158
      6 C         142.5961  142.7597  164.7502 C.3     1  UNL1        0.0028
      7 C         144.3175  140.9721  163.9814 C.3     1  UNL1        0.0737
      8 N         145.7148  140.8252  163.4561 N.3     1  UNL1       -0.3206
      9 H         146.0863  139.9149  163.7278 H       1  UNL1        0.1189
     10 H         146.3033  141.5623  163.8445 H       1  UNL1        0.1189
     11 C         143.6927  139.8608  164.7719 C.3     1  UNL1        0.1245
     12 C         139.7339  139.6611  166.9020 C.ar    1  UNL1        0.1675
     13 C         141.0535  139.7277  166.1919 C.ar    1  UNL1        0.0580
     14 C         141.2450  138.9986  164.8951 C.ar    1  UNL1        0.0833
     15 C         140.1169  138.2030  164.3083 C.ar    1  UNL1        0.0997
     16 C         138.7973  138.1365  165.0183 C.ar    1  UNL1        0.0533
     17 C         138.6058  138.8655  166.3152 C.ar    1  UNL1        0.1754
     18 F         137.2861  138.7989  167.0252 F       1  UNL1       -0.2009
     19 N         140.3084  137.4740  163.0114 N.ar    1  UNL1       -0.2373
     20 C         141.6280  137.5405  162.3014 C.ar    1  UNL1        0.1594
     21 C         142.7561  138.3361  162.8882 C.ar    1  UNL1        0.2803
     22 O         144.0757  138.4027  162.1782 O.2     1  UNL1       -0.2653
     23 N         142.5646  139.0652  164.1851 N.ar    1  UNL1       -0.2913
     24 C         140.4367  140.0926  169.3656 C.3     1  UNL1        0.2526
     25 O         139.5424  140.3902  168.1988 O.3     1  UNL1       -0.4691
     26 N         141.2271  146.0043  162.9204 N.3     1  UNL1       -0.2922
     27 H         141.7932  146.5696  162.2876 H       1  UNL1        0.1236
     28 C         139.8536  145.9289  162.3225 C.3     1  UNL1        0.1353
     29 C         139.1852  144.5979  162.1443 C.ar    1  UNL1        0.1567
     30 N         138.3461  144.0263  163.2485 N.ar    1  UNL1       -0.2245
     31 C         137.6777  142.6953  163.0704 C.ar    1  UNL1        0.1400
     32 C         137.8483  141.9360  161.7881 C.ar    1  UNL1        0.1898
     33 C         138.6873  142.5076  160.6839 C.ar    1  UNL1        0.1715
     34 N         139.3558  143.8386  160.8620 N.ar    1  UNL1       -0.2113
     35 N         138.8579  141.7483  159.4016 N.am    1  UNL1       -0.2638
     36 C         138.1895  140.4174  159.2235 C.2     1  UNL1        0.2718
     37 O         138.3601  139.6580  157.9412 O.2     1  UNL1       -0.2707
     38 C         137.3505  139.8457  160.3277 C.3     1  UNL1        0.2899
     39 O         137.1799  140.6050  161.6100 O.3     1  UNL1       -0.4612
     40 H         139.4086  142.1235  158.6769 H       1  UNL1        0.1565
@<TRIPOS>BOND
     1    24    25    1
     2    25    12    1
     3    12    13   ar
     4    13    14   ar
     5    14    15   ar
     6    15    16   ar
     7    16    17   ar
     8    17    18    1
     9    15    19   ar
    10    19    20   ar
    11    20    21   ar
    12    21    22    2
    13    21    23   ar
    14    23    11    1
    15    11     7    1
    16     7     8    1
    17     7     1    1
    18     1     2    1
    19     2     3    1
    20     3     4    1
    21     4    26    1
    22    26    28    1
    23    28    29    1
    24    29    30   ar
    25    30    31   ar
    26    31    32   ar
    27    32    33   ar
    28    33    34   ar
    29    33    35    1
    30    35    36   am
    31    36    37    2
    32    36    38    1
    33    38    39    1
    34     4     5    1
    35     5     6    1
    36    17    12   ar
    37     6     1    1
    38    23    14   ar
    39    34    29   ar
    40    39    32    1
    41     8     9    1
    42     8    10    1
    43    26    27    1
    44    35    40    1
@<TRIPOS>MOLECULE
*****
 40 44 0 0 0
SMALL
GASTEIGER

@<TRIPOS>ATOM
      1 C         138.6088  142.7978  163.7712 C.3     1  UNL1        0.0162
      2 C         139.2402  142.5366  165.1065 C.3     1  UNL1        0.0028
      3 C         139.1020  141.1891  165.7508 C.3     1  UNL1        0.0158
      4 C         138.3324  140.1027  165.0598 C.3     1  UNL1        0.0543
      5 C         137.7010  140.3639  163.7244 C.3     1  UNL1        0.0158
      6 C         137.8392  141.7114  163.0801 C.3     1  UNL1        0.0028
      7 C         138.7469  144.1453  163.1269 C.3     1  UNL1        0.0737
      8 N         137.5478  144.8147  162.5238 N.3     1  UNL1       -0.3206
      9 H         137.8221  145.7162  162.1334 H       1  UNL1        0.1189
     10 H         136.8398  144.9574  163.2441 H       1  UNL1        0.1189
     11 C         140.0843  144.8234  163.0858 C.3     1  UNL1        0.1245
     12 C         143.7847  142.4755  164.1082 C.ar    1  UNL1        0.1675
     13 C         142.5512  143.2581  163.7674 C.ar    1  UNL1        0.0580
     14 C         142.3040  143.6897  162.3523 C.ar    1  UNL1        0.0833
     15 C         143.2901  143.3386  161.2779 C.ar    1  UNL1        0.0997
     16 C         144.5235  142.5561  161.6187 C.ar    1  UNL1        0.0533
     17 C         144.7708  142.1245  163.0339 C.ar    1  UNL1        0.1754
     18 F         146.0043  141.3419  163.3747 F       1  UNL1       -0.2009
     19 N         143.0429  143.7702  159.8628 N.ar    1  UNL1       -0.2373
     20 C         141.8094  144.5528  159.5220 C.ar    1  UNL1        0.1594
     21 C         140.8232  144.9039  160.5963 C.ar    1  UNL1        0.2803
     22 O         139.5898  145.6864  160.2555 O.2     1  UNL1       -0.2653
     23 N         141.0705  144.4723  162.0115 N.ar    1  UNL1       -0.2913
     24 C         142.8933  141.9798  166.4977 C.3     1  UNL1        0.2526
     25 O         144.0319  142.0440  165.5234 O.3     1  UNL1       -0.4691
     26 N         138.1943  138.7552  165.7040 N.3     1  UNL1       -0.2922
     27 H         137.2325  138.4525  165.5501 H       1  UNL1        0.1236
     28 C         139.0788  137.6233  165.2723 C.3     1  UNL1        0.1353
     29 C         140.3598  137.9076  164.5454 C.ar    1  UNL1        0.1567
     30 N         141.5780  138.3324  165.3106 N.ar    1  UNL1       -0.2245
     31 C         142.8589  138.6168  164.5837 C.ar    1  UNL1        0.1400
     32 C         142.9216  138.4763  163.0916 C.ar    1  UNL1        0.1898
     33 C         141.7034  138.0514  162.3264 C.ar    1  UNL1        0.1715
     34 N         140.4225  137.7671  163.0533 N.ar    1  UNL1       -0.2113
     35 N         141.7661  137.9109  160.8343 N.am    1  UNL1       -0.2638
     36 C         143.0470  138.1952  160.1075 C.2     1  UNL1        0.2718
     37 O         143.1098  138.0547  158.6153 O.2     1  UNL1       -0.2707
     38 C         144.2652  138.6201  160.8726 C.3     1  UNL1        0.2899
     39 O         144.2025  138.7606  162.3647 O.3     1  UNL1       -0.4612
     40 H         140.9666  137.6321  160.3321 H       1  UNL1        0.1565
@<TRIPOS>BOND
     1    24    25    1
     2    25    12    1
     3    12    13   ar
     4    13    14   ar
     5    14    15   ar
     6    15    16   ar
     7    16    17   ar
     8    17    18    1
     9    15    19   ar
    10    19    20   ar
    11    20    21   ar
    12    21    22    2
    13    21    23   ar
    14    23    11    1
    15    11     7    1
    16     7     8    1
    17     7     1    1
    18     1     2    1
    19     2     3    1
    20     3     4    1
    21     4    26    1
    22    26    28    1
    23    28    29    1
    24    29    30   ar
    25    30    31   ar
    26    31    32   ar
    27    32    33   ar
    28    33    34   ar
    29    33    35    1
    30    35    36   am
    31    36    37    2
    32    36    38    1
    33    38    39    1
    34     4     5    1
    35     5     6    1
    36    17    12   ar
    37     6     1    1
    38    23    14   ar
    39    34    29   ar
    40    39    32    1
    41     8     9    1
    42     8    10    1
    43    26    27    1
    44    35    40    1
@<TRIPOS>MOLECULE
*****
 40 44 0 0 0
SMALL
GASTEIGER

@<TRIPOS>ATOM
      1 C         139.3114  137.9427  164.7016 C.3     1  UNL1        0.0162
      2 C         138.8616  138.0205  163.2728 C.3     1  UNL1        0.0028
      3 C         139.8488  137.8102  162.1632 C.3     1  UNL1        0.0158
      4 C         141.2859  137.5221  162.4824 C.3     1  UNL1        0.0543
      5 C         141.7357  137.4443  163.9114 C.3     1  UNL1        0.0158
      6 C         140.7484  137.6547  165.0209 C.3     1  UNL1        0.0028
      7 C         138.3242  138.1531  165.8111 C.3     1  UNL1        0.0737
      8 N         137.6260  136.9769  166.4268 N.3     1  UNL1       -0.3206
      9 H         136.9953  137.3014  167.1599 H       1  UNL1        0.1189
     10 H         138.3170  136.3434  166.8287 H       1  UNL1        0.1189
     11 C         138.0352  139.5397  166.3051 C.3     1  UNL1        0.1245
     12 C         141.5678  140.1680  169.0209 C.ar    1  UNL1        0.1675
     13 C         140.3903  139.9585  168.1156 C.ar    1  UNL1        0.0580
     14 C         140.1819  140.8605  166.9353 C.ar    1  UNL1        0.0833
     15 C         141.1510  141.9718  166.6603 C.ar    1  UNL1        0.0997
     16 C         142.3285  142.1812  167.5656 C.ar    1  UNL1        0.0533
     17 C         142.5369  141.2793  168.7459 C.ar    1  UNL1        0.1754
     18 F         143.7145  141.4888  169.6511 F       1  UNL1       -0.2009
     19 N         140.9426  142.8738  165.4800 N.ar    1  UNL1       -0.2373
     20 C         139.7650  142.6643  164.5748 C.ar    1  UNL1        0.1594
     21 C         138.7958  141.5529  164.8498 C.ar    1  UNL1        0.2803
     22 O         137.6183  141.3435  163.9445 O.2     1  UNL1       -0.2653
     23 N         139.0043  140.6510  166.0301 N.ar    1  UNL1       -0.2913
     24 C         142.8949  138.2668  170.1932 C.3     1  UNL1        0.2526
     25 O         141.7762  139.2660  170.2012 O.3     1  UNL1       -0.4691
     26 N         142.2731  137.3118  161.3729 N.3     1  UNL1       -0.2922
     27 H         141.7751  137.4829  160.4993 H       1  UNL1        0.1236
     28 C         143.5297  138.1292  161.3222 C.3     1  UNL1        0.1353
     29 C         143.4816  139.5981  161.6221 C.ar    1  UNL1        0.1567
     30 N         142.8918  140.5486  160.6227 N.ar    1  UNL1       -0.2245
     31 C         142.8436  142.0175  160.9225 C.ar    1  UNL1        0.1400
     32 C         143.3853  142.5361  162.2217 C.ar    1  UNL1        0.1898
     33 C         143.9750  141.5856  163.2211 C.ar    1  UNL1        0.1715
     34 N         144.0232  140.1166  162.9212 N.ar    1  UNL1       -0.2113
     35 N         144.5166  142.1040  164.5202 N.am    1  UNL1       -0.2638
     36 C         144.4685  143.5729  164.8200 C.2     1  UNL1        0.2718
     37 O         145.0101  144.0915  166.1192 O.2     1  UNL1       -0.2707
     38 C         143.8787  144.5234  163.8206 C.3     1  UNL1        0.2899
     39 O         143.3371  144.0050  162.5214 O.3     1  UNL1       -0.4612
     40 H         144.9037  141.4802  165.1761 H       1  UNL1        0.1565
@<TRIPOS>BOND
     1    24    25    1
     2    25    12    1
     3    12    13   ar
     4    13    14   ar
     5    14    15   ar
     6    15    16   ar
     7    16    17   ar
     8    17    18    1
     9    15    19   ar
    10    19    20   ar
    11    20    21   ar
    12    21    22    2
    13    21    23   ar
    14    23    11    1
    15    11     7    1
    16     7     8    1
    17     7     1    1
    18     1     2    1
    19     2     3    1
    20     3     4    1
    21     4    26    1
    22    26    28    1
    23    28    29    1
    24    29    30   ar
    25    30    31   ar
    26    31    32   ar
    27    32    33   ar
    28    33    34   ar
    29    33    35    1
    30    35    36   am
    31    36    37    2
    32    36    38    1
    33    38    39    1
    34     4     5    1
    35     5     6    1
    36    17    12   ar
    37     6     1    1
    38    23    14   ar
    39    34    29   ar
    40    39    32    1
    41     8     9    1
    42     8    10    1
    43    26    27    1
    44    35    40    1
@<TRIPOS>MOLECULE
*****
 40 44 0 0 0
SMALL
GASTEIGER

@<TRIPOS>ATOM
      1 C         139.3448  137.9835  164.6309 C.3     1  UNL1        0.0162
      2 C         138.8733  138.0669  163.2094 C.3     1  UNL1        0.0028
      3 C         139.8425  137.8565  162.0840 C.3     1  UNL1        0.0158
      4 C         141.2833  137.5626  162.3803 C.3     1  UNL1        0.0543
      5 C         141.7549  137.4793  163.8019 C.3     1  UNL1        0.0158
      6 C         140.7856  137.6897  164.9271 C.3     1  UNL1        0.0028
      7 C         138.3756  138.1940  165.7561 C.3     1  UNL1        0.0737
      8 N         137.7588  137.0132  166.4455 N.3     1  UNL1       -0.3206
      9 H         137.1298  137.3384  167.1796 H       1  UNL1        0.1189
     10 H         138.4936  136.4380  166.8575 H       1  UNL1        0.1189
     11 C         138.0230  139.5853  166.1920 C.3     1  UNL1        0.1245
     12 C         138.6040  142.6793  162.9765 C.ar    1  UNL1        0.1675
     13 C         138.4103  141.6480  164.0483 C.ar    1  UNL1        0.0580
     14 C         139.2916  141.6532  165.2621 C.ar    1  UNL1        0.0833
     15 C         140.3666  142.6897  165.4041 C.ar    1  UNL1        0.0997
     16 C         140.5602  143.7210  164.3322 C.ar    1  UNL1        0.0533
     17 C         139.6789  143.7158  163.1185 C.ar    1  UNL1        0.1754
     18 F         139.8726  144.7472  162.0466 F       1  UNL1       -0.2009
     19 N         141.2478  142.6948  166.6179 N.ar    1  UNL1       -0.2373
     20 C         141.0542  141.6635  167.6897 C.ar    1  UNL1        0.1594
     21 C         139.9792  140.6270  167.5478 C.ar    1  UNL1        0.2803
     22 O         139.7856  139.5957  168.6196 O.2     1  UNL1       -0.2653
     23 N         139.0979  140.6218  166.3340 N.ar    1  UNL1       -0.2913
     24 C         138.2793  142.2578  160.4335 C.3     1  UNL1        0.2526
     25 O         137.7227  142.6741  161.7627 O.3     1  UNL1       -0.4691
     26 N         142.2526  137.3522  161.2550 N.3     1  UNL1       -0.2922
     27 H         141.7584  137.5842  160.3934 H       1  UNL1        0.1236
     28 C         143.5472  138.1092  161.2290 C.3     1  UNL1        0.1353
     29 C         143.5497  139.5976  161.4156 C.ar    1  UNL1        0.1567
     30 N         143.1631  140.4966  160.2788 N.ar    1  UNL1       -0.2245
     31 C         143.1656  141.9849  160.4654 C.ar    1  UNL1        0.1400
     32 C         143.5546  142.5743  161.7889 C.ar    1  UNL1        0.1898
     33 C         143.9412  141.6752  162.9256 C.ar    1  UNL1        0.1715
     34 N         143.9387  140.1868  162.7390 N.ar    1  UNL1       -0.2113
     35 N         144.3302  142.2645  164.2490 N.am    1  UNL1       -0.2638
     36 C         144.3327  143.7528  164.4356 C.2     1  UNL1        0.2718
     37 O         144.7217  144.3421  165.7590 O.2     1  UNL1       -0.2707
     38 C         143.9461  144.6518  163.2988 C.3     1  UNL1        0.2899
     39 O         143.5571  144.0626  161.9754 O.3     1  UNL1       -0.4612
     40 H         144.5840  141.6744  164.9951 H       1  UNL1        0.1565
@<TRIPOS>BOND
     1    24    25    1
     2    25    12    1
     3    12    13   ar
     4    13    14   ar
     5    14    15   ar
     6    15    16   ar
     7    16    17   ar
     8    17    18    1
     9    15    19   ar
    10    19    20   ar
    11    20    21   ar
    12    21    22    2
    13    21    23   ar
    14    23    11    1
    15    11     7    1
    16     7     8    1
    17     7     1    1
    18     1     2    1
    19     2     3    1
    20     3     4    1
    21     4    26    1
    22    26    28    1
    23    28    29    1
    24    29    30   ar
    25    30    31   ar
    26    31    32   ar
    27    32    33   ar
    28    33    34   ar
    29    33    35    1
    30    35    36   am
    31    36    37    2
    32    36    38    1
    33    38    39    1
    34     4     5    1
    35     5     6    1
    36    17    12   ar
    37     6     1    1
    38    23    14   ar
    39    34    29   ar
    40    39    32    1
    41     8     9    1
    42     8    10    1
    43    26    27    1
    44    35    40    1
@<TRIPOS>MOLECULE
*****
 40 44 0 0 0
SMALL
GASTEIGER

@<TRIPOS>ATOM
      1 C         142.0116  138.5310  164.0557 C.3     1  UNL1        0.0162
      2 C         142.7272  138.6566  162.7434 C.3     1  UNL1        0.0028
      3 C         143.9443  139.5264  162.6330 C.3     1  UNL1        0.0158
      4 C         144.4458  140.2706  163.8350 C.3     1  UNL1        0.0543
      5 C         143.7301  140.1451  165.1473 C.3     1  UNL1        0.0158
      6 C         142.5131  139.2753  165.2577 C.3     1  UNL1        0.0028
      7 C         140.7946  137.6612  164.1661 C.3     1  UNL1        0.0737
      8 N         140.8907  136.1951  163.8643 N.3     1  UNL1       -0.3206
      9 H         139.9759  135.7615  163.9893 H       1  UNL1        0.1189
     10 H         141.5621  135.7608  164.4975 H       1  UNL1        0.1189
     11 C         139.4813  138.2576  164.5783 C.3     1  UNL1        0.1245
     12 C         139.6561  142.5459  165.9311 C.ar    1  UNL1        0.1675
     13 C         139.5978  141.1165  165.4802 C.ar    1  UNL1        0.0580
     14 C         138.9096  140.7629  164.1951 C.ar    1  UNL1        0.0833
     15 C         138.2796  141.8387  163.3610 C.ar    1  UNL1        0.0997
     16 C         138.3379  143.2681  163.8120 C.ar    1  UNL1        0.0533
     17 C         139.0261  143.6217  165.0970 C.ar    1  UNL1        0.1754
     18 F         139.0843  145.0512  165.5479 F       1  UNL1       -0.2009
     19 N         137.5914  141.4850  162.0760 N.ar    1  UNL1       -0.2373
     20 C         137.5331  140.0556  161.6251 C.ar    1  UNL1        0.1594
     21 C         138.1631  138.9798  162.4592 C.ar    1  UNL1        0.2803
     22 O         138.1049  137.5504  162.0083 O.2     1  UNL1       -0.2653
     23 N         138.8514  139.3334  163.7442 N.ar    1  UNL1       -0.2913
     24 C         141.7354  142.4058  167.4824 C.3     1  UNL1        0.2526
     25 O         140.3443  142.8995  167.2161 O.3     1  UNL1       -0.4691
     26 N         145.6628  141.1404  163.7246 N.3     1  UNL1       -0.2922
     27 H         146.4075  140.5577  163.3421 H       1  UNL1        0.1236
     28 C         145.6197  142.3886  162.8939 C.3     1  UNL1        0.1353
     29 C         144.3780  143.2299  162.8681 C.ar    1  UNL1        0.1567
     30 N         143.8184  143.7804  164.1463 N.ar    1  UNL1       -0.2245
     31 C         142.5769  144.6217  164.1205 C.ar    1  UNL1        0.1400
     32 C         141.8948  144.9125  162.8165 C.ar    1  UNL1        0.1898
     33 C         142.4544  144.3620  161.5383 C.ar    1  UNL1        0.1715
     34 N         143.6961  143.5207  161.5641 N.ar    1  UNL1       -0.2113
     35 N         141.7724  144.6527  160.2344 N.am    1  UNL1       -0.2638
     36 C         140.5308  145.4940  160.2087 C.2     1  UNL1        0.2718
     37 O         139.8488  145.7847  158.9047 O.2     1  UNL1       -0.2707
     38 C         139.9712  146.0445  161.4869 C.3     1  UNL1        0.2899
     39 O         140.6532  145.7537  162.7908 O.3     1  UNL1       -0.4612
     40 H         142.1397  144.2914  159.3955 H       1  UNL1        0.1565
@<TRIPOS>BOND
     1    24    25    1
     2    25    12    1
     3    12    13   ar
     4    13    14   ar
     5    14    15   ar
     6    15    16   ar
     7    16    17   ar
     8    17    18    1
     9    15    19   ar
    10    19    20   ar
    11    20    21   ar
    12    21    22    2
    13    21    23   ar
    14    23    11    1
    15    11     7    1
    16     7     8    1
    17     7     1    1
    18     1     2    1
    19     2     3    1
    20     3     4    1
    21     4    26    1
    22    26    28    1
    23    28    29    1
    24    29    30   ar
    25    30    31   ar
    26    31    32   ar
    27    32    33   ar
    28    33    34   ar
    29    33    35    1
    30    35    36   am
    31    36    37    2
    32    36    38    1
    33    38    39    1
    34     4     5    1
    35     5     6    1
    36    17    12   ar
    37     6     1    1
    38    23    14   ar
    39    34    29   ar
    40    39    32    1
    41     8     9    1
    42     8    10    1
    43    26    27    1
    44    35    40    1
@<TRIPOS>MOLECULE
*****
 40 44 0 0 0
SMALL
GASTEIGER

@<TRIPOS>ATOM
      1 C         138.2086  140.0110  162.8593 C.3     1  UNL1        0.0162
      2 C         138.2543  140.7116  161.5338 C.3     1  UNL1        0.0028
      3 C         138.0359  142.1939  161.4609 C.3     1  UNL1        0.0158
      4 C         137.7719  142.9755  162.7136 C.3     1  UNL1        0.0543
      5 C         137.7263  142.2749  164.0392 C.3     1  UNL1        0.0158
      6 C         137.9446  140.7927  164.1120 C.3     1  UNL1        0.0028
      7 C         138.4270  138.5288  162.9321 C.3     1  UNL1        0.0737
      8 N         137.7331  137.6199  161.9613 N.3     1  UNL1       -0.3206
      9 H         137.9943  136.6531  162.1545 H       1  UNL1        0.1189
     10 H         138.0099  137.8633  161.0103 H       1  UNL1        0.1189
     11 C         139.3393  137.9555  163.9757 C.3     1  UNL1        0.1245
     12 C         140.6919  140.4836  167.4440 C.ar    1  UNL1        0.1675
     13 C         140.2410  139.6409  166.2879 C.ar    1  UNL1        0.0580
     14 C         141.2161  139.2562  165.2150 C.ar    1  UNL1        0.0833
     15 C         142.6420  139.7142  165.2981 C.ar    1  UNL1        0.0997
     16 C         143.0929  140.5569  166.4542 C.ar    1  UNL1        0.0533
     17 C         142.1178  140.9416  167.5271 C.ar    1  UNL1        0.1754
     18 F         142.5687  141.7844  168.6832 F       1  UNL1       -0.2009
     19 N         143.6171  139.3295  164.2252 N.ar    1  UNL1       -0.2373
     20 C         143.1663  138.4868  163.0691 C.ar    1  UNL1        0.1594
     21 C         141.7403  138.0287  162.9859 C.ar    1  UNL1        0.2803
     22 O         141.2895  137.1860  161.8299 O.2     1  UNL1       -0.2653
     23 N         140.7652  138.4135  164.0589 N.ar    1  UNL1       -0.2913
     24 C         139.7566  140.1794  169.8487 C.3     1  UNL1        0.2526
     25 O         139.7168  140.8684  168.5169 O.3     1  UNL1       -0.4691
     26 N         137.5536  144.4577  162.6408 N.3     1  UNL1       -0.2922
     27 H         137.0557  144.7241  163.4903 H       1  UNL1        0.1236
     28 C         138.7273  145.3836  162.5185 C.3     1  UNL1        0.1353
     29 C         140.0541  144.8559  162.0588 C.ar    1  UNL1        0.1567
     30 N         140.4161  144.9014  160.6039 N.ar    1  UNL1       -0.2245
     31 C         141.7428  144.3738  160.1442 C.ar    1  UNL1        0.1400
     32 C         142.7077  143.8005  161.1395 C.ar    1  UNL1        0.1898
     33 C         142.3457  143.7550  162.5945 C.ar    1  UNL1        0.1715
     34 N         141.0189  144.2827  163.0541 N.ar    1  UNL1       -0.2113
     35 N         143.3104  143.1818  163.5898 N.am    1  UNL1       -0.2638
     36 C         144.6371  142.6541  163.1301 C.2     1  UNL1        0.2718
     37 O         145.6020  142.0808  164.1254 O.2     1  UNL1       -0.2707
     38 C         144.9991  142.6996  161.6752 C.3     1  UNL1        0.2899
     39 O         144.0344  143.2728  160.6799 O.3     1  UNL1       -0.4612
     40 H         143.0728  143.1519  164.5447 H       1  UNL1        0.1565
@<TRIPOS>BOND
     1    24    25    1
     2    25    12    1
     3    12    13   ar
     4    13    14   ar
     5    14    15   ar
     6    15    16   ar
     7    16    17   ar
     8    17    18    1
     9    15    19   ar
    10    19    20   ar
    11    20    21   ar
    12    21    22    2
    13    21    23   ar
    14    23    11    1
    15    11     7    1
    16     7     8    1
    17     7     1    1
    18     1     2    1
    19     2     3    1
    20     3     4    1
    21     4    26    1
    22    26    28    1
    23    28    29    1
    24    29    30   ar
    25    30    31   ar
    26    31    32   ar
    27    32    33   ar
    28    33    34   ar
    29    33    35    1
    30    35    36   am
    31    36    37    2
    32    36    38    1
    33    38    39    1
    34     4     5    1
    35     5     6    1
    36    17    12   ar
    37     6     1    1
    38    23    14   ar
    39    34    29   ar
    40    39    32    1
    41     8     9    1
    42     8    10    1
    43    26    27    1
    44    35    40    1
@<TRIPOS>MOLECULE
*****
 40 44 0 0 0
SMALL
GASTEIGER

@<TRIPOS>ATOM
      1 C         138.4200  140.2120  165.2919 C.3     1  UNL1        0.0162
      2 C         139.4131  141.0457  166.0460 C.3     1  UNL1        0.0028
      3 C         139.5923  142.4944  165.7005 C.3     1  UNL1        0.0158
      4 C         138.7783  143.1093  164.6008 C.3     1  UNL1        0.0543
      5 C         137.7852  142.2755  163.8466 C.3     1  UNL1        0.0158
      6 C         137.6061  140.8269  164.1922 C.3     1  UNL1        0.0028
      7 C         138.2409  138.7634  165.6375 C.3     1  UNL1        0.0737
      8 N         137.4657  138.3746  166.8614 N.3     1  UNL1       -0.3206
      9 H         137.4444  137.3580  166.9416 H       1  UNL1        0.1189
     10 H         136.5125  138.7300  166.7872 H       1  UNL1        0.1189
     11 C         138.8370  137.7035  164.7591 C.3     1  UNL1        0.1245
     12 C         143.1568  138.6420  165.6008 C.ar    1  UNL1        0.1675
     13 C         141.7169  138.3292  165.3202 C.ar    1  UNL1        0.0580
     14 C         141.1935  138.4012  163.9163 C.ar    1  UNL1        0.0833
     15 C         142.1100  138.7861  162.7930 C.ar    1  UNL1        0.0997
     16 C         143.5499  139.0989  163.0736 C.ar    1  UNL1        0.0533
     17 C         144.0733  139.0268  164.4775 C.ar    1  UNL1        0.1754
     18 F         145.5133  139.3396  164.7580 F       1  UNL1       -0.2009
     19 N         141.5866  138.8582  161.3892 N.ar    1  UNL1       -0.2373
     20 C         140.1467  138.5454  161.1086 C.ar    1  UNL1        0.1594
     21 C         139.2301  138.1605  162.2319 C.ar    1  UNL1        0.2803
     22 O         137.7902  137.8477  161.9514 O.2     1  UNL1       -0.2653
     23 N         139.7535  138.0884  163.6358 N.ar    1  UNL1       -0.2913
     24 C         142.8808  139.1495  168.1338 C.3     1  UNL1        0.2526
     25 O         143.6802  138.5699  167.0047 O.3     1  UNL1       -0.4691
     26 N         138.9575  144.5579  164.2552 N.3     1  UNL1       -0.2922
     27 H         139.9178  144.8018  164.4974 H       1  UNL1        0.1236
     28 C         138.7334  145.0264  162.8480 C.3     1  UNL1        0.1353
     29 C         139.7661  144.7563  161.7941 C.ar    1  UNL1        0.1567
     30 N         139.9937  145.7510  160.6947 N.ar    1  UNL1       -0.2245
     31 C         141.0264  145.4809  159.6408 C.ar    1  UNL1        0.1400
     32 C         141.8314  144.2160  159.6864 C.ar    1  UNL1        0.1898
     33 C         141.6038  143.2213  160.7858 C.ar    1  UNL1        0.1715
     34 N         140.5711  143.4914  161.8397 N.ar    1  UNL1       -0.2113
     35 N         142.4088  141.9565  160.8313 N.am    1  UNL1       -0.2638
     36 C         143.4415  141.6864  159.7775 C.2     1  UNL1        0.2718
     37 O         144.2466  140.4215  159.8230 O.2     1  UNL1       -0.2707
     38 C         143.6691  142.6811  158.6781 C.3     1  UNL1        0.2899
     39 O         142.8641  143.9459  158.6325 O.3     1  UNL1       -0.4612
     40 H         142.2594  141.3036  161.5529 H       1  UNL1        0.1565
@<TRIPOS>BOND
     1    24    25    1
     2    25    12    1
     3    12    13   ar
     4    13    14   ar
     5    14    15   ar
     6    15    16   ar
     7    16    17   ar
     8    17    18    1
     9    15    19   ar
    10    19    20   ar
    11    20    21   ar
    12    21    22    2
    13    21    23   ar
    14    23    11    1
    15    11     7    1
    16     7     8    1
    17     7     1    1
    18     1     2    1
    19     2     3    1
    20     3     4    1
    21     4    26    1
    22    26    28    1
    23    28    29    1
    24    29    30   ar
    25    30    31   ar
    26    31    32   ar
    27    32    33   ar
    28    33    34   ar
    29    33    35    1
    30    35    36   am
    31    36    37    2
    32    36    38    1
    33    38    39    1
    34     4     5    1
    35     5     6    1
    36    17    12   ar
    37     6     1    1
    38    23    14   ar
    39    34    29   ar
    40    39    32    1
    41     8     9    1
    42     8    10    1
    43    26    27    1
    44    35    40    1
@<TRIPOS>MOLECULE
*****
 40 44 0 0 0
SMALL
GASTEIGER

@<TRIPOS>ATOM
      1 C         141.5832  138.2755  161.2847 C.3     1  UNL1        0.0162
      2 C         143.0704  138.2857  161.4799 C.3     1  UNL1        0.0028
      3 C         143.9556  138.9449  160.4640 C.3     1  UNL1        0.0158
      4 C         143.3536  139.5938  159.2530 C.3     1  UNL1        0.0543
      5 C         141.8663  139.5835  159.0579 C.3     1  UNL1        0.0158
      6 C         140.9812  138.9244  160.0738 C.3     1  UNL1        0.0028
      7 C         140.6981  137.6164  162.3006 C.3     1  UNL1        0.0737
      8 N         141.2392  136.5177  163.1667 N.3     1  UNL1       -0.3206
      9 H         140.5062  136.1874  163.7945 H       1  UNL1        0.1189
     10 H         142.0227  136.8719  163.7154 H       1  UNL1        0.1189
     11 C         139.2717  138.0559  162.4504 C.3     1  UNL1        0.1245
     12 C         138.1978  142.3855  161.8579 C.ar    1  UNL1        0.1675
     13 C         138.5558  140.9423  162.0554 C.ar    1  UNL1        0.0580
     14 C         138.5070  140.3385  163.4277 C.ar    1  UNL1        0.0833
     15 C         138.1003  141.1779  164.6024 C.ar    1  UNL1        0.0997
     16 C         137.7423  142.6211  164.4049 C.ar    1  UNL1        0.0533
     17 C         137.7911  143.2249  163.0326 C.ar    1  UNL1        0.1754
     18 F         137.4331  144.6681  162.8351 F       1  UNL1       -0.2009
     19 N         138.0515  140.5741  165.9746 N.ar    1  UNL1       -0.2373
     20 C         138.4095  139.1309  166.1721 C.ar    1  UNL1        0.1594
     21 C         138.8162  138.2914  164.9974 C.ar    1  UNL1        0.2803
     22 O         139.1742  136.8483  165.1949 O.2     1  UNL1       -0.2653
     23 N         138.8650  138.8953  163.6251 N.ar    1  UNL1       -0.2913
     24 C         138.7181  142.1692  159.3217 C.3     1  UNL1        0.2526
     25 O         138.2466  142.9893  160.4857 O.3     1  UNL1       -0.4691
     26 N         144.2387  140.2529  158.2371 N.3     1  UNL1       -0.2922
     27 H         143.8260  140.0681  157.3229 H       1  UNL1        0.1236
     28 C         144.4910  141.7298  158.3079 C.3     1  UNL1        0.1353
     29 C         143.9419  142.5306  159.4513 C.ar    1  UNL1        0.1567
     30 N         144.6617  142.5500  160.7672 N.ar    1  UNL1       -0.2245
     31 C         144.1127  143.3507  161.9106 C.ar    1  UNL1        0.1400
     32 C         142.8439  144.1321  161.7382 C.ar    1  UNL1        0.1898
     33 C         142.1241  144.1126  160.4223 C.ar    1  UNL1        0.1715
     34 N         142.6731  143.3119  159.2789 N.ar    1  UNL1       -0.2113
     35 N         140.8553  144.8939  160.2499 N.am    1  UNL1       -0.2638
     36 C         140.3064  145.6946  161.3933 C.2     1  UNL1        0.2718
     37 O         139.0375  146.4759  161.2209 O.2     1  UNL1       -0.2707
     38 C         141.0262  145.7140  162.7092 C.3     1  UNL1        0.2899
     39 O         142.2949  144.9328  162.8816 O.3     1  UNL1       -0.4612
     40 H         140.3829  144.8811  159.3862 H       1  UNL1        0.1565
@<TRIPOS>BOND
     1    24    25    1
     2    25    12    1
     3    12    13   ar
     4    13    14   ar
     5    14    15   ar
     6    15    16   ar
     7    16    17   ar
     8    17    18    1
     9    15    19   ar
    10    19    20   ar
    11    20    21   ar
    12    21    22    2
    13    21    23   ar
    14    23    11    1
    15    11     7    1
    16     7     8    1
    17     7     1    1
    18     1     2    1
    19     2     3    1
    20     3     4    1
    21     4    26    1
    22    26    28    1
    23    28    29    1
    24    29    30   ar
    25    30    31   ar
    26    31    32   ar
    27    32    33   ar
    28    33    34   ar
    29    33    35    1
    30    35    36   am
    31    36    37    2
    32    36    38    1
    33    38    39    1
    34     4     5    1
    35     5     6    1
    36    17    12   ar
    37     6     1    1
    38    23    14   ar
    39    34    29   ar
    40    39    32    1
    41     8     9    1
    42     8    10    1
    43    26    27    1
    44    35    40    1
