@<TRIPOS>MOLECULE
*****
 29 33 0 0 0
SMALL
GASTEIGER

@<TRIPOS>ATOM
      1 N         140.5273  138.6905  161.1335 N.am    1  UNL1       -0.2414
      2 C         139.1188  138.3326  160.7622 C.3     1  UNL1        0.1212
      3 C         138.4261  137.8357  161.9964 C.3     1  UNL1        0.1169
      4 N         139.4066  137.8866  163.1305 N.am    1  UNL1       -0.2606
      5 C         140.7052  138.4149  162.5972 C.2     1  UNL1        0.3111
      6 O         141.9612  138.6298  163.3886 O.2     1  UNL1       -0.2520
      7 C         146.4631  141.5514  155.7455 C.3     1  UNL1        0.0983
      8 C         145.4620  140.6406  156.3923 C.2     1  UNL1        0.2418
      9 O         145.2272  139.2679  155.8350 O.2     1  UNL1       -0.2716
     10 N         144.6957  141.1025  157.5962 N.ar    1  UNL1       -0.2766
     11 C         144.8227  142.4405  158.2621 C.ar    1  UNL1        0.0827
     12 C         143.8734  142.4724  159.4231 C.ar    1  UNL1        0.0206
     13 C         143.1598  141.1540  159.4748 C.ar    1  UNL1        0.0189
     14 C         142.1129  140.6151  160.4040 C.ar    1  UNL1        0.0164
     15 C         141.5743  139.2295  160.2042 C.ar    1  UNL1        0.0554
     16 C         142.0825  138.3828  159.0751 C.ar    1  UNL1        0.0164
     17 C         143.1294  138.9217  158.1458 C.ar    1  UNL1        0.0189
     18 C         143.6681  140.3073  158.3457 C.ar    1  UNL1        0.0667
     19 C         139.1359  137.4805  164.5489 C.3     1  UNL1        0.1123
     20 C         138.5688  138.4746  165.5184 C.3     1  UNL1        0.0944
     21 N         138.6301  139.9414  165.2106 N.3     1  UNL1       -0.2637
     22 C         137.8237  140.6581  164.1684 C.3     1  UNL1        0.0992
     23 C         138.2038  142.1087  164.2046 C.ar    1  UNL1       -0.0088
     24 C         137.7363  143.2890  163.4057 C.ar    1  UNL1       -0.0032
     25 C         138.3101  144.6492  163.6715 C.ar    1  UNL1       -0.0003
     26 C         139.3514  144.8291  164.7361 C.ar    1  UNL1       -0.0003
     27 C         139.8189  143.6487  165.5350 C.ar    1  UNL1       -0.0032
     28 C         139.2451  142.2885  165.2692 C.ar    1  UNL1       -0.0088
     29 C         139.5086  140.9491  165.8909 C.3     1  UNL1        0.0992
@<TRIPOS>BOND
     1     7     8    1
     2     8     9    2
     3     8    10   am
     4    10    11   ar
     5    11    12   ar
     6    12    13   ar
     7    13    14   ar
     8    14    15   ar
     9    15     1    1
    10     1     2    1
    11     2     3    1
    12     3     4    1
    13     4    19    1
    14    19    20    1
    15    20    21    1
    16    21    22    1
    17    22    23    1
    18    23    24   ar
    19    24    25   ar
    20    25    26   ar
    21    26    27   ar
    22    27    28   ar
    23    28    29    1
    24     4     5   am
    25     5     6    2
    26    15    16   ar
    27    16    17   ar
    28    17    18   ar
    29    18    10   ar
    30    18    13   ar
    31     5     1   am
    32    29    21    1
    33    28    23   ar
@<TRIPOS>MOLECULE
*****
 29 33 0 0 0
SMALL
GASTEIGER

@<TRIPOS>ATOM
      1 N         138.7503  139.5650  163.8004 N.am    1  UNL1       -0.2414
      2 C         138.7735  138.1086  164.1585 C.3     1  UNL1        0.1212
      3 C         138.9596  137.9992  165.6429 C.3     1  UNL1        0.1169
      4 N         139.0515  139.3880  166.2022 N.am    1  UNL1       -0.2606
      5 C         138.9221  140.3557  165.0635 C.2     1  UNL1        0.3111
      6 O         138.9582  141.8516  165.1692 O.2     1  UNL1       -0.2520
      7 C         137.6656  142.6080  155.9257 C.3     1  UNL1        0.0983
      8 C         137.5312  141.7255  157.1312 C.2     1  UNL1        0.2418
      9 O         136.6411  140.5192  157.0820 O.2     1  UNL1       -0.2716
     10 N         138.2870  142.0493  158.3857 N.ar    1  UNL1       -0.2766
     11 C         139.2097  143.2153  158.5830 C.ar    1  UNL1        0.0827
     12 C         139.7457  143.1506  159.9825 C.ar    1  UNL1        0.0206
     13 C         139.1543  141.9446  160.6501 C.ar    1  UNL1        0.0189
     14 C         139.3201  141.3783  162.0292 C.ar    1  UNL1        0.0164
     15 C         138.5844  140.1314  162.4213 C.ar    1  UNL1        0.0554
     16 C         137.6829  139.4507  161.4345 C.ar    1  UNL1        0.0164
     17 C         137.5170  140.0170  160.0554 C.ar    1  UNL1        0.0189
     18 C         138.2527  141.2640  159.6633 C.ar    1  UNL1        0.0667
     19 C         139.2396  139.7462  167.6466 C.3     1  UNL1        0.1123
     20 C         140.5951  140.1456  168.1498 C.3     1  UNL1        0.0944
     21 N         141.6907  140.4689  167.1776 N.3     1  UNL1       -0.2637
     22 C         142.1791  141.8425  166.8244 C.3     1  UNL1        0.0992
     23 C         143.2805  141.6979  165.8164 C.ar    1  UNL1       -0.0088
     24 C         144.1331  142.7093  165.1094 C.ar    1  UNL1       -0.0032
     25 C         145.1781  142.2577  164.1326 C.ar    1  UNL1       -0.0003
     26 C         145.3704  140.7948  163.8628 C.ar    1  UNL1       -0.0003
     27 C         144.5178  139.7833  164.5699 C.ar    1  UNL1       -0.0032
     28 C         143.4728  140.2349  165.5467 C.ar    1  UNL1       -0.0088
     29 C         142.4902  139.4754  166.3880 C.3     1  UNL1        0.0992
@<TRIPOS>BOND
     1     7     8    1
     2     8     9    2
     3     8    10   am
     4    10    11   ar
     5    11    12   ar
     6    12    13   ar
     7    13    14   ar
     8    14    15   ar
     9    15     1    1
    10     1     2    1
    11     2     3    1
    12     3     4    1
    13     4    19    1
    14    19    20    1
    15    20    21    1
    16    21    22    1
    17    22    23    1
    18    23    24   ar
    19    24    25   ar
    20    25    26   ar
    21    26    27   ar
    22    27    28   ar
    23    28    29    1
    24     4     5   am
    25     5     6    2
    26    15    16   ar
    27    16    17   ar
    28    17    18   ar
    29    18    10   ar
    30    18    13   ar
    31     5     1   am
    32    29    21    1
    33    28    23   ar
@<TRIPOS>MOLECULE
*****
 29 33 0 0 0
SMALL
GASTEIGER

@<TRIPOS>ATOM
      1 N         140.5038  138.7570  161.0264 N.am    1  UNL1       -0.2414
      2 C         139.4623  138.9459  159.9637 C.3     1  UNL1        0.1212
      3 C         140.0580  138.5297  158.6515 C.3     1  UNL1        0.1169
      4 N         141.4679  138.0836  158.9032 N.am    1  UNL1       -0.2606
      5 C         141.7434  138.2241  160.3710 C.2     1  UNL1        0.3111
      6 O         143.0322  137.8902  161.0620 O.2     1  UNL1       -0.2520
      7 C         139.3629  140.2843  169.3218 C.3     1  UNL1        0.0983
      8 C         139.1458  139.7369  167.9421 C.2     1  UNL1        0.2418
      9 O         137.9866  138.8243  167.6713 O.2     1  UNL1       -0.2716
     10 N         140.0878  140.1022  166.8335 N.ar    1  UNL1       -0.2766
     11 C         141.2844  140.9988  166.9527 C.ar    1  UNL1        0.0827
     12 C         141.9348  141.0856  165.6039 C.ar    1  UNL1        0.0206
     13 C         141.1402  140.2427  164.6510 C.ar    1  UNL1        0.0189
     14 C         141.3086  139.9501  163.1895 C.ar    1  UNL1        0.0164
     15 C         140.3355  139.0496  162.4879 C.ar    1  UNL1        0.0554
     16 C         139.1940  138.4418  163.2479 C.ar    1  UNL1        0.0164
     17 C         139.0256  138.7344  164.7094 C.ar    1  UNL1        0.0189
     18 C         139.9987  139.6349  165.4109 C.ar    1  UNL1        0.0667
     19 C         142.4328  137.5846  157.8688 C.3     1  UNL1        0.1123
     20 C         141.9319  136.8006  156.6922 C.3     1  UNL1        0.0944
     21 N         142.5137  135.4521  156.3870 N.3     1  UNL1       -0.2637
     22 C         143.5082  134.7097  157.2296 C.3     1  UNL1        0.0992
     23 C         143.8124  133.4081  156.5489 C.ar    1  UNL1       -0.0088
     24 C         144.7195  132.2713  156.9162 C.ar    1  UNL1       -0.0032
     25 C         144.8201  131.0725  156.0201 C.ar    1  UNL1       -0.0003
     26 C         144.0136  131.0105  154.7569 C.ar    1  UNL1       -0.0003
     27 C         143.1065  132.1473  154.3896 C.ar    1  UNL1       -0.0032
     28 C         143.0059  133.3461  155.2857 C.ar    1  UNL1       -0.0088
     29 C         142.2033  134.6093  155.1856 C.3     1  UNL1        0.0992
@<TRIPOS>BOND
     1     7     8    1
     2     8     9    2
     3     8    10   am
     4    10    11   ar
     5    11    12   ar
     6    12    13   ar
     7    13    14   ar
     8    14    15   ar
     9    15     1    1
    10     1     2    1
    11     2     3    1
    12     3     4    1
    13     4    19    1
    14    19    20    1
    15    20    21    1
    16    21    22    1
    17    22    23    1
    18    23    24   ar
    19    24    25   ar
    20    25    26   ar
    21    26    27   ar
    22    27    28   ar
    23    28    29    1
    24     4     5   am
    25     5     6    2
    26    15    16   ar
    27    16    17   ar
    28    17    18   ar
    29    18    10   ar
    30    18    13   ar
    31     5     1   am
    32    29    21    1
    33    28    23   ar
@<TRIPOS>MOLECULE
*****
 29 33 0 0 0
SMALL
GASTEIGER

@<TRIPOS>ATOM
      1 N         140.9848  138.6152  160.9621 N.am    1  UNL1       -0.2414
      2 C         139.6618  138.6410  160.2557 C.3     1  UNL1        0.1212
      3 C         139.9094  138.3858  158.7985 C.3     1  UNL1        0.1169
      4 N         141.3854  138.2023  158.6043 N.am    1  UNL1       -0.2606
      5 C         142.0500  138.3441  159.9415 C.2     1  UNL1        0.3111
      6 O         143.5215  138.2340  160.2108 O.2     1  UNL1       -0.2520
      7 C         142.4138  139.6655  169.2870 C.3     1  UNL1        0.0983
      8 C         142.5810  139.1962  167.8720 C.2     1  UNL1        0.2418
      9 O         143.7248  138.2957  167.5109 O.2     1  UNL1       -0.2716
     10 N         141.6043  139.6276  166.8184 N.ar    1  UNL1       -0.2766
     11 C         140.4179  140.5210  167.0288 C.ar    1  UNL1        0.0827
     12 C         139.7230  140.6868  165.7098 C.ar    1  UNL1        0.0206
     13 C         140.4799  139.8959  164.6844 C.ar    1  UNL1        0.0189
     14 C         140.2606  139.6872  163.2153 C.ar    1  UNL1        0.0164
     15 C         141.2041  138.8239  162.4313 C.ar    1  UNL1        0.0554
     16 C         142.3668  138.1693  163.1165 C.ar    1  UNL1        0.0164
     17 C         142.5861  138.3779  164.5856 C.ar    1  UNL1        0.0189
     18 C         141.6427  139.2412  165.3695 C.ar    1  UNL1        0.0667
     19 C         142.0756  137.9256  157.3016 C.3     1  UNL1        0.1123
     20 C         141.6321  136.7750  156.4474 C.3     1  UNL1        0.0944
     21 N         142.4029  135.4883  156.4635 N.3     1  UNL1       -0.2637
     22 C         142.3689  134.4269  155.4041 C.3     1  UNL1        0.0992
     23 C         143.2879  133.3196  155.8276 C.ar    1  UNL1       -0.0088
     24 C         143.6544  132.0167  155.1809 C.ar    1  UNL1       -0.0032
     25 C         144.6229  131.0910  155.8554 C.ar    1  UNL1       -0.0003
     26 C         145.2249  131.4680  157.1765 C.ar    1  UNL1       -0.0003
     27 C         144.8584  132.7709  157.8232 C.ar    1  UNL1       -0.0032
     28 C         143.8899  133.6967  157.1487 C.ar    1  UNL1       -0.0088
     29 C         143.3429  135.0370  157.5417 C.3     1  UNL1        0.0992
@<TRIPOS>BOND
     1     7     8    1
     2     8     9    2
     3     8    10   am
     4    10    11   ar
     5    11    12   ar
     6    12    13   ar
     7    13    14   ar
     8    14    15   ar
     9    15     1    1
    10     1     2    1
    11     2     3    1
    12     3     4    1
    13     4    19    1
    14    19    20    1
    15    20    21    1
    16    21    22    1
    17    22    23    1
    18    23    24   ar
    19    24    25   ar
    20    25    26   ar
    21    26    27   ar
    22    27    28   ar
    23    28    29    1
    24     4     5   am
    25     5     6    2
    26    15    16   ar
    27    16    17   ar
    28    17    18   ar
    29    18    10   ar
    30    18    13   ar
    31     5     1   am
    32    29    21    1
    33    28    23   ar
@<TRIPOS>MOLECULE
*****
 29 33 0 0 0
SMALL
GASTEIGER

@<TRIPOS>ATOM
      1 N         142.9852  138.9254  162.0825 N.am    1  UNL1       -0.2414
      2 C         144.1466  139.8342  162.3567 C.3     1  UNL1        0.1212
      3 C         144.4524  139.7659  163.8236 C.3     1  UNL1        0.1169
      4 N         143.4800  138.8148  164.4560 N.am    1  UNL1       -0.2606
      5 C         142.5732  138.2954  163.3799 C.2     1  UNL1        0.3111
      6 O         141.4514  137.3176  163.5683 O.2     1  UNL1       -0.2520
      7 C         139.1950  137.7159  154.5579 C.3     1  UNL1        0.0983
      8 C         139.4485  138.2174  155.9488 C.2     1  UNL1        0.2418
      9 O         138.4642  139.1399  156.6044 O.2     1  UNL1       -0.2716
     10 N         140.6864  137.7963  156.6838 N.ar    1  UNL1       -0.2766
     11 C         141.7553  136.8836  156.1600 C.ar    1  UNL1        0.0827
     12 C         142.8022  136.7372  157.2243 C.ar    1  UNL1        0.0206
     13 C         142.3802  137.5593  158.4058 C.ar    1  UNL1        0.0189
     14 C         143.0178  137.7965  159.7427 C.ar    1  UNL1        0.0164
     15 C         142.3477  138.6882  160.7455 C.ar    1  UNL1        0.0554
     16 C         141.0400  139.3428  160.4115 C.ar    1  UNL1        0.0164
     17 C         140.4024  139.1056  159.0747 C.ar    1  UNL1        0.0189
     18 C         141.0726  138.2139  158.0718 C.ar    1  UNL1        0.0667
     19 C         143.4242  138.4477  165.9093 C.3     1  UNL1        0.1123
     20 C         142.6395  139.2944  166.8671 C.3     1  UNL1        0.0944
     21 N         141.5937  140.2377  166.3509 N.3     1  UNL1       -0.2637
     22 C         140.2695  139.8498  165.7625 C.3     1  UNL1        0.0992
     23 C         139.5459  141.1070  165.3805 C.ar    1  UNL1       -0.0088
     24 C         138.2018  141.3415  164.7573 C.ar    1  UNL1       -0.0032
     25 C         137.7347  142.7410  164.4865 C.ar    1  UNL1       -0.0003
     26 C         138.6115  143.9058  164.8388 C.ar    1  UNL1       -0.0003
     27 C         139.9557  143.6713  165.4620 C.ar    1  UNL1       -0.0032
     28 C         140.4228  142.2718  165.7328 C.ar    1  UNL1       -0.0088
     29 C         141.6884  141.7346  166.3326 C.3     1  UNL1        0.0992
@<TRIPOS>BOND
     1     7     8    1
     2     8     9    2
     3     8    10   am
     4    10    11   ar
     5    11    12   ar
     6    12    13   ar
     7    13    14   ar
     8    14    15   ar
     9    15     1    1
    10     1     2    1
    11     2     3    1
    12     3     4    1
    13     4    19    1
    14    19    20    1
    15    20    21    1
    16    21    22    1
    17    22    23    1
    18    23    24   ar
    19    24    25   ar
    20    25    26   ar
    21    26    27   ar
    22    27    28   ar
    23    28    29    1
    24     4     5   am
    25     5     6    2
    26    15    16   ar
    27    16    17   ar
    28    17    18   ar
    29    18    10   ar
    30    18    13   ar
    31     5     1   am
    32    29    21    1
    33    28    23   ar
@<TRIPOS>MOLECULE
*****
 29 33 0 0 0
SMALL
GASTEIGER

@<TRIPOS>ATOM
      1 N         142.9190  138.9183  162.9997 N.am    1  UNL1       -0.2414
      2 C         144.0719  139.5569  162.2836 C.3     1  UNL1        0.1212
      3 C         144.0963  139.0278  160.8802 C.3     1  UNL1        0.1169
      4 N         142.9583  138.0623  160.7290 N.am    1  UNL1       -0.2606
      5 C         142.2307  137.9946  162.0389 C.2     1  UNL1        0.3111
      6 O         141.0263  137.1513  162.3359 O.2     1  UNL1       -0.2520
      7 C         140.8771  140.2107  171.1611 C.3     1  UNL1        0.0983
      8 C         141.6608  139.8109  169.9461 C.2     1  UNL1        0.2418
      9 O         143.0332  139.2251  170.0982 O.2     1  UNL1       -0.2716
     10 N         141.0719  139.9969  168.5791 N.ar    1  UNL1       -0.2766
     11 C         139.7187  140.5666  168.2722 C.ar    1  UNL1        0.0827
     12 C         139.5434  140.5676  166.7824 C.ar    1  UNL1        0.0206
     13 C         140.7882  139.9986  166.1687 C.ar    1  UNL1        0.0189
     14 C         141.1835  139.7561  164.7423 C.ar    1  UNL1        0.0164
     15 C         142.5236  139.1609  164.4263 C.ar    1  UNL1        0.0554
     16 C         143.4683  138.8081  165.5367 C.ar    1  UNL1        0.0164
     17 C         143.0730  139.0506  166.9632 C.ar    1  UNL1        0.0189
     18 C         141.7329  139.6459  167.2792 C.ar    1  UNL1        0.0667
     19 C         142.6093  137.2985  159.4860 C.3     1  UNL1        0.1123
     20 C         142.8295  137.9187  158.1381 C.3     1  UNL1        0.0944
     21 N         142.6134  137.1075  156.8950 N.3     1  UNL1       -0.2637
     22 C         142.7907  135.6233  156.7688 C.3     1  UNL1        0.0992
     23 C         142.4689  135.2365  155.3557 C.ar    1  UNL1       -0.0088
     24 C         142.4698  133.9115  154.6527 C.ar    1  UNL1       -0.0032
     25 C         142.0945  133.8316  153.2026 C.ar    1  UNL1       -0.0003
     26 C         141.7182  135.0767  152.4555 C.ar    1  UNL1       -0.0003
     27 C         141.7173  136.4018  153.1585 C.ar    1  UNL1       -0.0032
     28 C         142.0926  136.4816  154.6086 C.ar    1  UNL1       -0.0088
     29 C         142.1819  137.6379  155.5600 C.3     1  UNL1        0.0992
@<TRIPOS>BOND
     1     7     8    1
     2     8     9    2
     3     8    10   am
     4    10    11   ar
     5    11    12   ar
     6    12    13   ar
     7    13    14   ar
     8    14    15   ar
     9    15     1    1
    10     1     2    1
    11     2     3    1
    12     3     4    1
    13     4    19    1
    14    19    20    1
    15    20    21    1
    16    21    22    1
    17    22    23    1
    18    23    24   ar
    19    24    25   ar
    20    25    26   ar
    21    26    27   ar
    22    27    28   ar
    23    28    29    1
    24     4     5   am
    25     5     6    2
    26    15    16   ar
    27    16    17   ar
    28    17    18   ar
    29    18    10   ar
    30    18    13   ar
    31     5     1   am
    32    29    21    1
    33    28    23   ar
@<TRIPOS>MOLECULE
*****
 29 33 0 0 0
SMALL
GASTEIGER

@<TRIPOS>ATOM
      1 N         138.5843  139.3539  163.6622 N.am    1  UNL1       -0.2414
      2 C         138.6977  137.9636  163.1107 C.3     1  UNL1        0.1212
      3 C         138.1605  137.9752  161.7102 C.3     1  UNL1        0.1169
      4 N         137.7150  139.3727  161.3962 N.am    1  UNL1       -0.2606
      5 C         137.9769  140.2248  162.6025 C.2     1  UNL1        0.3111
      6 O         137.6831  141.6904  162.7273 O.2     1  UNL1       -0.2520
      7 C         140.8360  141.6983  171.5286 C.3     1  UNL1        0.0983
      8 C         140.1701  140.9485  170.4131 C.2     1  UNL1        0.2418
      9 O         139.2395  139.8136  170.7230 O.2     1  UNL1       -0.2716
     10 N         140.4347  141.3336  168.9877 N.ar    1  UNL1       -0.2766
     11 C         141.3360  142.4403  168.5262 C.ar    1  UNL1        0.0827
     12 C         141.3028  142.4703  167.0269 C.ar    1  UNL1        0.0206
     13 C         140.3811  141.3821  166.5617 C.ar    1  UNL1        0.0189
     14 C         139.9610  140.9403  165.1913 C.ar    1  UNL1        0.0164
     15 C         139.0044  139.7959  165.0327 C.ar    1  UNL1        0.0554
     16 C         138.4679  139.0934  166.2445 C.ar    1  UNL1        0.0164
     17 C         138.8879  139.5352  167.6150 C.ar    1  UNL1        0.0189
     18 C         139.8446  140.6796  167.7736 C.ar    1  UNL1        0.0667
     19 C         137.1133  139.8366  160.1028 C.3     1  UNL1        0.1123
     20 C         137.9769  140.4926  159.0666 C.3     1  UNL1        0.0944
     21 N         139.3667  140.9336  159.4184 N.3     1  UNL1       -0.2637
     22 C         139.7679  142.3058  159.8727 C.3     1  UNL1        0.0992
     23 C         141.2485  142.3001  160.1128 C.ar    1  UNL1       -0.0088
     24 C         142.1952  143.3699  160.5705 C.ar    1  UNL1       -0.0032
     25 C         143.6558  143.0639  160.7222 C.ar    1  UNL1       -0.0003
     26 C         144.1698  141.6884  160.4163 C.ar    1  UNL1       -0.0003
     27 C         143.2231  140.6186  159.9586 C.ar    1  UNL1       -0.0032
     28 C         141.7625  140.9245  159.8069 C.ar    1  UNL1       -0.0088
     29 C         140.5994  140.0800  159.3777 C.3     1  UNL1        0.0992
@<TRIPOS>BOND
     1     7     8    1
     2     8     9    2
     3     8    10   am
     4    10    11   ar
     5    11    12   ar
     6    12    13   ar
     7    13    14   ar
     8    14    15   ar
     9    15     1    1
    10     1     2    1
    11     2     3    1
    12     3     4    1
    13     4    19    1
    14    19    20    1
    15    20    21    1
    16    21    22    1
    17    22    23    1
    18    23    24   ar
    19    24    25   ar
    20    25    26   ar
    21    26    27   ar
    22    27    28   ar
    23    28    29    1
    24     4     5   am
    25     5     6    2
    26    15    16   ar
    27    16    17   ar
    28    17    18   ar
    29    18    10   ar
    30    18    13   ar
    31     5     1   am
    32    29    21    1
    33    28    23   ar
@<TRIPOS>MOLECULE
*****
 29 33 0 0 0
SMALL
GASTEIGER

@<TRIPOS>ATOM
      1 N         141.9879  138.6120  162.3826 N.am    1  UNL1       -0.2414
      2 C         142.8068  138.5362  163.6370 C.3     1  UNL1        0.1212
      3 C         141.9039  138.1055  164.7547 C.3     1  UNL1        0.1169
      4 N         140.5269  137.9152  164.1911 N.am    1  UNL1       -0.2606
      5 C         140.5788  138.2282  162.7250 C.2     1  UNL1        0.3111
      6 O         139.4244  138.1680  161.7692 O.2     1  UNL1       -0.2520
      7 C         144.9126  141.0270  154.7628 C.3     1  UNL1        0.0983
      8 C         144.5921  141.0554  156.2279 C.2     1  UNL1        0.2418
      9 O         144.9845  142.2411  157.0585 O.2     1  UNL1       -0.2716
     10 N         143.8793  139.8981  156.8623 N.ar    1  UNL1       -0.2766
     11 C         143.4267  138.6507  156.1629 C.ar    1  UNL1        0.0827
     12 C         142.7616  137.7667  157.1758 C.ar    1  UNL1        0.0206
     13 C         142.8031  138.4677  158.5013 C.ar    1  UNL1        0.0189
     14 C         142.3011  138.0767  159.8596 C.ar    1  UNL1        0.0164
     15 C         142.4899  139.0030  161.0242 C.ar    1  UNL1        0.0554
     16 C         143.1807  140.3203  160.8304 C.ar    1  UNL1        0.0164
     17 C         143.6826  140.7113  159.4721 C.ar    1  UNL1        0.0189
     18 C         143.4938  139.7850  158.3075 C.ar    1  UNL1        0.0667
     19 C         139.3114  137.4870  164.9587 C.3     1  UNL1        0.1123
     20 C         138.4749  138.5091  165.6698 C.3     1  UNL1        0.0944
     21 N         138.5308  139.9479  165.2495 N.3     1  UNL1       -0.2637
     22 C         137.8280  140.5495  164.0687 C.3     1  UNL1        0.0992
     23 C         138.1622  142.0111  164.0256 C.ar    1  UNL1       -0.0088
     24 C         137.7559  143.1063  163.0845 C.ar    1  UNL1       -0.0032
     25 C         138.2591  144.5032  163.2977 C.ar    1  UNL1       -0.0003
     26 C         139.1684  144.8050  164.4518 C.ar    1  UNL1       -0.0003
     27 C         139.5747  143.7099  165.3929 C.ar    1  UNL1       -0.0032
     28 C         139.0715  142.3129  165.1797 C.ar    1  UNL1       -0.0088
     29 C         139.2993  141.0378  165.9361 C.3     1  UNL1        0.0992
@<TRIPOS>BOND
     1     7     8    1
     2     8     9    2
     3     8    10   am
     4    10    11   ar
     5    11    12   ar
     6    12    13   ar
     7    13    14   ar
     8    14    15   ar
     9    15     1    1
    10     1     2    1
    11     2     3    1
    12     3     4    1
    13     4    19    1
    14    19    20    1
    15    20    21    1
    16    21    22    1
    17    22    23    1
    18    23    24   ar
    19    24    25   ar
    20    25    26   ar
    21    26    27   ar
    22    27    28   ar
    23    28    29    1
    24     4     5   am
    25     5     6    2
    26    15    16   ar
    27    16    17   ar
    28    17    18   ar
    29    18    10   ar
    30    18    13   ar
    31     5     1   am
    32    29    21    1
    33    28    23   ar
@<TRIPOS>MOLECULE
*****
 29 33 0 0 0
SMALL
GASTEIGER

@<TRIPOS>ATOM
      1 N         141.2670  139.3028  159.4554 N.am    1  UNL1       -0.2414
      2 C         142.6767  138.8208  159.2813 C.3     1  UNL1        0.1212
      3 C         142.7043  137.8812  158.1124 C.3     1  UNL1        0.1169
      4 N         141.3116  137.7825  157.5640 N.am    1  UNL1       -0.2606
      5 C         140.4233  138.6611  158.3940 C.2     1  UNL1        0.3111
      6 O         138.9500  138.8626  158.1972 O.2     1  UNL1       -0.2520
      7 C         138.4490  144.8603  165.2538 C.3     1  UNL1        0.0983
      8 C         138.7319  144.2256  163.9243 C.2     1  UNL1        0.2418
      9 O         138.2778  144.8957  162.6616 O.2     1  UNL1       -0.2716
     10 N         139.4690  142.9208  163.8578 N.ar    1  UNL1       -0.2766
     11 C         139.9822  142.1374  165.0295 C.ar    1  UNL1        0.0827
     12 C         140.6526  140.9029  164.5037 C.ar    1  UNL1        0.0206
     13 C         140.5537  140.9233  163.0071 C.ar    1  UNL1        0.0189
     14 C         141.0353  139.9674  161.9563 C.ar    1  UNL1        0.0164
     15 C         140.7854  140.2587  160.5063 C.ar    1  UNL1        0.0554
     16 C         140.0539  141.5059  160.1071 C.ar    1  UNL1        0.0164
     17 C         139.5723  142.4618  161.1579 C.ar    1  UNL1        0.0189
     18 C         139.8222  142.1705  162.6079 C.ar    1  UNL1        0.0667
     19 C         140.8826  136.9511  156.3915 C.3     1  UNL1        0.1123
     20 C         141.9085  136.2322  155.5664 C.3     1  UNL1        0.0944
     21 N         142.4712  134.9254  156.0413 N.3     1  UNL1       -0.2637
     22 C         141.8987  133.5666  155.7655 C.3     1  UNL1        0.0992
     23 C         142.7789  132.5493  156.4292 C.ar    1  UNL1       -0.0088
     24 C         142.7080  131.0526  156.4975 C.ar    1  UNL1       -0.0032
     25 C         143.7536  130.2859  157.2518 C.ar    1  UNL1       -0.0003
     26 C         144.8700  131.0160  157.9378 C.ar    1  UNL1       -0.0003
     27 C         144.9409  132.5127  157.8695 C.ar    1  UNL1       -0.0032
     28 C         143.8953  133.2794  157.1152 C.ar    1  UNL1       -0.0088
     29 C         143.7052  134.7479  156.8755 C.3     1  UNL1        0.0992
@<TRIPOS>BOND
     1     7     8    1
     2     8     9    2
     3     8    10   am
     4    10    11   ar
     5    11    12   ar
     6    12    13   ar
     7    13    14   ar
     8    14    15   ar
     9    15     1    1
    10     1     2    1
    11     2     3    1
    12     3     4    1
    13     4    19    1
    14    19    20    1
    15    20    21    1
    16    21    22    1
    17    22    23    1
    18    23    24   ar
    19    24    25   ar
    20    25    26   ar
    21    26    27   ar
    22    27    28   ar
    23    28    29    1
    24     4     5   am
    25     5     6    2
    26    15    16   ar
    27    16    17   ar
    28    17    18   ar
    29    18    10   ar
    30    18    13   ar
    31     5     1   am
    32    29    21    1
    33    28    23   ar
