@<TRIPOS>MOLECULE
*****
 32 36 0 0 0
SMALL
GASTEIGER

@<TRIPOS>ATOM
      1 C         143.0442  138.7959  159.5497 C.ar    1  UNL1        0.1233
      2 C         142.0165  138.1448  158.6724 C.ar    1  UNL1        0.1179
      3 N         142.4161  138.3703  157.2443 N.ar    1  UNL1       -0.2257
      4 N         143.6909  139.1608  157.2391 N.ar    1  UNL1       -0.0635
      5 N         144.0791  139.4238  158.6639 N.ar    1  UNL1       -0.1287
      6 C         144.0376  139.6642  163.2926 C.ar    1  UNL1        0.1547
      7 C         144.0436  139.6445  161.7928 C.ar    1  UNL1        0.0400
      8 C         143.0383  138.8156  161.0497 C.ar    1  UNL1        0.0241
      9 C         142.0270  138.0064  161.8063 C.ar    1  UNL1        0.0033
     10 C         142.0211  138.0261  163.3061 C.ar    1  UNL1        0.0207
     11 C         143.0264  138.8550  164.0493 C.ar    1  UNL1        0.0994
     12 N         143.0204  138.8747  165.5492 N.ar    1  UNL1       -0.2839
     13 C         143.8371  137.9921  166.4458 C.ar    1  UNL1        0.1826
     14 N         143.5181  138.3524  167.8665 N.ar    1  UNL1       -0.2280
     15 C         142.5042  139.4578  167.8480 C.ar    1  UNL1        0.0786
     16 C         141.9034  140.1234  169.0504 C.3     1  UNL1        0.0538
     17 C         142.1966  139.7805  166.4158 C.ar    1  UNL1        0.0963
     18 C         145.6679  141.6854  163.3743 C.3     1  UNL1        0.2525
     19 O         145.0429  140.4931  164.0358 O.3     1  UNL1       -0.4700
     20 C         141.6716  137.8897  156.0340 C.3     1  UNL1        0.1556
     21 C         141.9664  136.5352  155.4610 C.ar    1  UNL1        0.0023
     22 C         141.5787  136.2185  154.0469 C.ar    1  UNL1       -0.0023
     23 C         141.8734  134.8640  153.4739 C.ar    1  UNL1       -0.0002
     24 C         142.5559  133.8262  154.3148 C.ar    1  UNL1        0.0031
     25 C         142.9436  134.1429  155.7288 C.ar    1  UNL1        0.0388
     26 C         142.6488  135.4974  156.3018 C.ar    1  UNL1        0.0008
     27 C         143.6261  133.1051  156.5698 C.ar    1  UNL1        0.2033
     28 N         144.5534  133.3713  157.7184 N.ar    1  UNL1       -0.0560
     29 O         145.0014  132.0496  158.2682 O.2     1  UNL1       -0.3370
     30 C         144.3510  130.9665  157.4595 C.ar    1  UNL1        0.2371
     31 C         144.5209  129.4904  157.6644 C.3     1  UNL1        0.0978
     32 N         143.5010  131.6189  156.4098 N.ar    1  UNL1       -0.1907
@<TRIPOS>BOND
     1    18    19    1
     2    19     6    1
     3     6     7   ar
     4     7     8   ar
     5     8     1    1
     6     1     2   ar
     7     2     3   ar
     8     3    20    1
     9    20    21    1
    10    21    22   ar
    11    22    23   ar
    12    23    24   ar
    13    24    25   ar
    14    25    27    1
    15    27    28   ar
    16    28    29   ar
    17    29    30   ar
    18    30    31    1
    19    30    32   ar
    20    25    26   ar
    21     3     4   ar
    22     4     5   ar
    23     8     9   ar
    24     9    10   ar
    25    10    11   ar
    26    11    12    1
    27    12    13   ar
    28    13    14   ar
    29    14    15   ar
    30    15    16    1
    31    15    17   ar
    32    11     6   ar
    33    17    12   ar
    34     5     1   ar
    35    26    21   ar
    36    32    27   ar
@<TRIPOS>MOLECULE
*****
 32 36 0 0 0
SMALL
GASTEIGER

@<TRIPOS>ATOM
      1 C         138.8658  139.3776  159.1655 C.ar    1  UNL1        0.1233
      2 C         139.6999  138.5082  158.2720 C.ar    1  UNL1        0.1179
      3 N         139.3438  138.8279  156.8504 N.ar    1  UNL1       -0.2257
      4 N         138.2895  139.8949  156.8653 N.ar    1  UNL1       -0.0635
      5 N         137.9942  140.2346  158.2961 N.ar    1  UNL1       -0.1287
      6 C         138.0997  140.3898  162.9256 C.ar    1  UNL1        0.1547
      7 C         138.0678  140.3792  161.4260 C.ar    1  UNL1        0.0400
      8 C         138.8977  139.3881  160.6652 C.ar    1  UNL1        0.0241
      9 C         139.7596  138.4076  161.4039 C.ar    1  UNL1        0.0033
     10 C         139.7914  138.4182  162.9035 C.ar    1  UNL1        0.0207
     11 C         138.9615  139.4093  163.6644 C.ar    1  UNL1        0.0994
     12 N         138.9934  139.4198  165.1641 N.ar    1  UNL1       -0.2839
     13 C         138.0212  138.7262  166.0715 C.ar    1  UNL1        0.1826
     14 N         138.4301  139.0035  167.4878 N.ar    1  UNL1       -0.2280
     15 C         139.6551  139.8687  167.4557 C.ar    1  UNL1        0.0786
     16 C         140.4010  140.3857  168.6499 C.3     1  UNL1        0.0538
     17 C         140.0032  140.1259  166.0195 C.ar    1  UNL1        0.0963
     18 C         137.8715  142.6829  164.1254 C.3     1  UNL1        0.2525
     19 O         137.2698  141.3809  163.6865 O.3     1  UNL1       -0.4700
     20 C         139.9376  138.1922  155.6283 C.3     1  UNL1        0.1556
     21 C         141.3081  137.5856  155.6892 C.ar    1  UNL1        0.0023
     22 C         142.5127  138.4203  155.3690 C.ar    1  UNL1       -0.0023
     23 C         143.8832  137.8136  155.4299 C.ar    1  UNL1       -0.0002
     24 C         144.0492  136.3724  155.8110 C.ar    1  UNL1        0.0031
     25 C         142.8447  135.5378  156.1312 C.ar    1  UNL1        0.0388
     26 C         141.4742  136.1444  156.0703 C.ar    1  UNL1        0.0008
     27 C         143.0107  134.0965  156.5123 C.ar    1  UNL1        0.2033
     28 N         142.0037  133.0058  156.2966 N.ar    1  UNL1       -0.0560
     29 O         142.5835  131.7282  156.8270 O.2     1  UNL1       -0.3370
     30 C         143.9488  132.0292  157.3706 C.ar    1  UNL1        0.2371
     31 C         144.8855  131.0401  157.9984 C.3     1  UNL1        0.0978
     32 N         144.2128  133.4929  157.1761 N.ar    1  UNL1       -0.1907
@<TRIPOS>BOND
     1    18    19    1
     2    19     6    1
     3     6     7   ar
     4     7     8   ar
     5     8     1    1
     6     1     2   ar
     7     2     3   ar
     8     3    20    1
     9    20    21    1
    10    21    22   ar
    11    22    23   ar
    12    23    24   ar
    13    24    25   ar
    14    25    27    1
    15    27    28   ar
    16    28    29   ar
    17    29    30   ar
    18    30    31    1
    19    30    32   ar
    20    25    26   ar
    21     3     4   ar
    22     4     5   ar
    23     8     9   ar
    24     9    10   ar
    25    10    11   ar
    26    11    12    1
    27    12    13   ar
    28    13    14   ar
    29    14    15   ar
    30    15    16    1
    31    15    17   ar
    32    11     6   ar
    33    17    12   ar
    34     5     1   ar
    35    26    21   ar
    36    32    27   ar
@<TRIPOS>MOLECULE
*****
 32 36 0 0 0
SMALL
GASTEIGER

@<TRIPOS>ATOM
      1 C         138.6168  139.6152  159.2688 C.ar    1  UNL1        0.1233
      2 C         139.5715  138.9241  158.3410 C.ar    1  UNL1        0.1179
      3 N         139.1518  139.2277  156.9334 N.ar    1  UNL1       -0.2257
      4 N         137.9375  140.1065  156.9911 N.ar    1  UNL1       -0.0635
      5 N         137.6069  140.3460  158.4345 N.ar    1  UNL1       -0.1287
      6 C         139.4023  138.4179  162.9701 C.ar    1  UNL1        0.1547
      7 C         139.3554  138.4517  161.4712 C.ar    1  UNL1        0.0400
      8 C         138.6636  139.5815  160.7677 C.ar    1  UNL1        0.0241
      9 C         138.0186  140.6775  161.5631 C.ar    1  UNL1        0.0033
     10 C         138.0655  140.6438  163.0619 C.ar    1  UNL1        0.0207
     11 C         138.7573  139.5140  163.7654 C.ar    1  UNL1        0.0994
     12 N         138.8042  139.4803  165.2644 N.ar    1  UNL1       -0.2839
     13 C         137.9560  138.6205  166.1539 C.ar    1  UNL1        0.1826
     14 N         138.3350  138.9093  167.5762 N.ar    1  UNL1       -0.2280
     15 C         139.4176  139.9476  167.5657 C.ar    1  UNL1        0.0786
     16 C         140.0917  140.5306  168.7721 C.3     1  UNL1        0.0538
     17 C         139.7075  140.3005  166.1369 C.ar    1  UNL1        0.0963
     18 C         141.4880  137.4715  164.1964 C.3     1  UNL1        0.2525
     19 O         140.0941  137.2881  163.6736 O.3     1  UNL1       -0.4700
     20 C         139.8276  138.7385  155.6868 C.3     1  UNL1        0.1556
     21 C         141.1067  137.9609  155.7829 C.ar    1  UNL1        0.0023
     22 C         142.4245  138.6760  155.7357 C.ar    1  UNL1       -0.0023
     23 C         143.7036  137.8984  155.8318 C.ar    1  UNL1       -0.0002
     24 C         143.6649  136.4058  155.9752 C.ar    1  UNL1        0.0031
     25 C         142.3472  135.6907  156.0224 C.ar    1  UNL1        0.0388
     26 C         141.0681  136.4683  155.9263 C.ar    1  UNL1        0.0008
     27 C         142.3086  134.1981  156.1658 C.ar    1  UNL1        0.2033
     28 N         142.8981  133.4052  157.2945 N.ar    1  UNL1       -0.0560
     29 O         142.6275  131.9534  157.0319 O.2     1  UNL1       -0.3370
     30 C         141.8707  131.8490  155.7410 C.ar    1  UNL1        0.2371
     31 C         141.3947  130.5801  155.0982 C.3     1  UNL1        0.0978
     32 N         141.6736  133.2363  155.2057 N.ar    1  UNL1       -0.1907
@<TRIPOS>BOND
     1    18    19    1
     2    19     6    1
     3     6     7   ar
     4     7     8   ar
     5     8     1    1
     6     1     2   ar
     7     2     3   ar
     8     3    20    1
     9    20    21    1
    10    21    22   ar
    11    22    23   ar
    12    23    24   ar
    13    24    25   ar
    14    25    27    1
    15    27    28   ar
    16    28    29   ar
    17    29    30   ar
    18    30    31    1
    19    30    32   ar
    20    25    26   ar
    21     3     4   ar
    22     4     5   ar
    23     8     9   ar
    24     9    10   ar
    25    10    11   ar
    26    11    12    1
    27    12    13   ar
    28    13    14   ar
    29    14    15   ar
    30    15    16    1
    31    15    17   ar
    32    11     6   ar
    33    17    12   ar
    34     5     1   ar
    35    26    21   ar
    36    32    27   ar
@<TRIPOS>MOLECULE
*****
 32 36 0 0 0
SMALL
GASTEIGER

@<TRIPOS>ATOM
      1 C         140.0726  144.8169  162.3495 C.ar    1  UNL1        0.1233
      2 C         140.8323  144.2819  161.1720 C.ar    1  UNL1        0.1179
      3 N         140.4838  145.1185  159.9767 N.ar    1  UNL1       -0.2257
      4 N         139.5088  146.1706  160.4155 N.ar    1  UNL1       -0.0635
      5 N         139.2547  145.9842  161.8820 N.ar    1  UNL1       -0.1287
      6 C         141.3260  142.8877  165.5833 C.ar    1  UNL1        0.1547
      7 C         141.2764  143.4255  164.1840 C.ar    1  UNL1        0.0400
      8 C         140.1222  144.2791  163.7490 C.ar    1  UNL1        0.0241
      9 C         139.0176  144.5949  164.7134 C.ar    1  UNL1        0.0033
     10 C         139.0672  144.0571  166.1127 C.ar    1  UNL1        0.0207
     11 C         140.2214  143.2035  166.5477 C.ar    1  UNL1        0.0994
     12 N         140.2710  142.6657  167.9472 N.ar    1  UNL1       -0.2839
     13 C         140.4979  143.4695  169.1931 C.ar    1  UNL1        0.1826
     14 N         140.4695  142.5303  170.3623 N.ar    1  UNL1       -0.2280
     15 C         140.2250  141.1459  169.8389 C.ar    1  UNL1        0.0786
     16 C         140.1213  139.8972  170.6634 C.3     1  UNL1        0.0538
     17 C         140.1023  141.2297  168.3463 C.ar    1  UNL1        0.0963
     18 C         143.7389  142.6753  166.5229 C.3     1  UNL1        0.2525
     19 O         142.4802  142.0341  166.0183 O.3     1  UNL1       -0.4700
     20 C         141.0168  144.9352  158.5866 C.3     1  UNL1        0.1556
     21 C         140.1467  145.2403  157.4034 C.ar    1  UNL1        0.0023
     22 C         139.2876  144.1649  156.8070 C.ar    1  UNL1       -0.0023
     23 C         138.4175  144.4700  155.6239 C.ar    1  UNL1       -0.0002
     24 C         138.4065  145.8504  155.0371 C.ar    1  UNL1        0.0031
     25 C         139.2656  146.9257  155.6334 C.ar    1  UNL1        0.0388
     26 C         140.1356  146.6206  156.8166 C.ar    1  UNL1        0.0008
     27 C         139.2545  148.3062  155.0466 C.ar    1  UNL1        0.2033
     28 N         139.7674  148.6920  153.6908 N.ar    1  UNL1       -0.0560
     29 O         139.5586  150.1674  153.5189 O.2     1  UNL1       -0.3370
     30 C         138.9166  150.6934  154.7684 C.ar    1  UNL1        0.2371
     31 C         138.5304  152.1193  155.0281 C.3     1  UNL1        0.0978
     32 N         138.7288  149.5431  155.7126 N.ar    1  UNL1       -0.1907
@<TRIPOS>BOND
     1    18    19    1
     2    19     6    1
     3     6     7   ar
     4     7     8   ar
     5     8     1    1
     6     1     2   ar
     7     2     3   ar
     8     3    20    1
     9    20    21    1
    10    21    22   ar
    11    22    23   ar
    12    23    24   ar
    13    24    25   ar
    14    25    27    1
    15    27    28   ar
    16    28    29   ar
    17    29    30   ar
    18    30    31    1
    19    30    32   ar
    20    25    26   ar
    21     3     4   ar
    22     4     5   ar
    23     8     9   ar
    24     9    10   ar
    25    10    11   ar
    26    11    12    1
    27    12    13   ar
    28    13    14   ar
    29    14    15   ar
    30    15    16    1
    31    15    17   ar
    32    11     6   ar
    33    17    12   ar
    34     5     1   ar
    35    26    21   ar
    36    32    27   ar
@<TRIPOS>MOLECULE
*****
 32 36 0 0 0
SMALL
GASTEIGER

@<TRIPOS>ATOM
      1 C         138.5947  141.8249  160.0016 C.ar    1  UNL1        0.1233
      2 C         138.3047  140.9425  158.8238 C.ar    1  UNL1        0.1179
      3 N         138.3739  141.7854  157.5850 N.ar    1  UNL1       -0.2257
      4 N         138.7068  143.1888  157.9971 N.ar    1  UNL1       -0.0635
      5 N         138.8432  143.2132  159.4907 N.ar    1  UNL1       -0.1287
      6 C         139.4699  139.7646  163.2787 C.ar    1  UNL1        0.1547
      7 C         139.4346  140.1948  161.8422 C.ar    1  UNL1        0.0400
      8 C         138.6300  141.3946  161.4382 C.ar    1  UNL1        0.0241
      9 C         137.8608  142.1642  162.4707 C.ar    1  UNL1        0.0033
     10 C         137.8962  141.7339  163.9072 C.ar    1  UNL1        0.0207
     11 C         138.7007  140.5341  164.3112 C.ar    1  UNL1        0.0994
     12 N         138.7361  140.1038  165.7478 N.ar    1  UNL1       -0.2839
     13 C         137.8967  139.0253  166.3660 C.ar    1  UNL1        0.1826
     14 N         138.2589  138.9315  167.8186 N.ar    1  UNL1       -0.2280
     15 C         139.3221  139.9521  168.0981 C.ar    1  UNL1        0.0786
     16 C         139.9756  140.2039  169.4246 C.3     1  UNL1        0.0538
     17 C         139.6170  140.6766  166.8183 C.ar    1  UNL1        0.0963
     18 C         141.7510  138.6947  163.9126 C.3     1  UNL1        0.2525
     19 O         140.2745  138.5648  163.6826 O.3     1  UNL1       -0.4700
     20 C         138.1497  141.3086  156.1805 C.3     1  UNL1        0.1556
     21 C         136.7577  141.2349  155.6267 C.ar    1  UNL1        0.0023
     22 C         136.4609  141.7944  154.2668 C.ar    1  UNL1       -0.0023
     23 C         135.0688  141.7207  153.7130 C.ar    1  UNL1       -0.0002
     24 C         133.9735  141.0876  154.5190 C.ar    1  UNL1        0.0031
     25 C         134.2703  140.5282  155.8788 C.ar    1  UNL1        0.0388
     26 C         135.6624  140.6019  156.4326 C.ar    1  UNL1        0.0008
     27 C         133.1750  139.8950  156.6847 C.ar    1  UNL1        0.2033
     28 N         133.3367  138.7644  157.6571 N.ar    1  UNL1       -0.0560
     29 O         131.9874  138.4520  158.2331 O.2     1  UNL1       -0.3370
     30 C         130.9918  139.3896  157.6167 C.ar    1  UNL1        0.2371
     31 C         129.5206  139.4285  157.9064 C.3     1  UNL1        0.0978
     32 N         131.7259  140.2814  156.6598 N.ar    1  UNL1       -0.1907
@<TRIPOS>BOND
     1    18    19    1
     2    19     6    1
     3     6     7   ar
     4     7     8   ar
     5     8     1    1
     6     1     2   ar
     7     2     3   ar
     8     3    20    1
     9    20    21    1
    10    21    22   ar
    11    22    23   ar
    12    23    24   ar
    13    24    25   ar
    14    25    27    1
    15    27    28   ar
    16    28    29   ar
    17    29    30   ar
    18    30    31    1
    19    30    32   ar
    20    25    26   ar
    21     3     4   ar
    22     4     5   ar
    23     8     9   ar
    24     9    10   ar
    25    10    11   ar
    26    11    12    1
    27    12    13   ar
    28    13    14   ar
    29    14    15   ar
    30    15    16    1
    31    15    17   ar
    32    11     6   ar
    33    17    12   ar
    34     5     1   ar
    35    26    21   ar
    36    32    27   ar
@<TRIPOS>MOLECULE
*****
 32 36 0 0 0
SMALL
GASTEIGER

@<TRIPOS>ATOM
      1 C         142.7332  139.4248  162.1484 C.ar    1  UNL1        0.1233
      2 C         141.7988  139.3575  160.9769 C.ar    1  UNL1        0.1179
      3 N         142.6038  139.0035  159.7617 N.ar    1  UNL1       -0.2257
      4 N         144.0357  138.8520  160.1822 N.ar    1  UNL1       -0.0635
      5 N         144.1157  139.1124  161.6572 N.ar    1  UNL1       -0.1287
      6 C         140.5272  140.2511  165.3423 C.ar    1  UNL1        0.1547
      7 C         140.9084  139.9280  163.9280 C.ar    1  UNL1        0.0400
      8 C         142.3521  139.7479  163.5628 C.ar    1  UNL1        0.0241
      9 C         143.4146  139.8908  164.6119 C.ar    1  UNL1        0.0033
     10 C         143.0334  140.2138  166.0262 C.ar    1  UNL1        0.0207
     11 C         141.5897  140.3940  166.3914 C.ar    1  UNL1        0.0994
     12 N         141.2086  140.7170  167.8058 N.ar    1  UNL1       -0.2839
     13 C         141.3621  139.8088  168.9897 C.ar    1  UNL1        0.1826
     14 N         140.8554  140.5355  170.2002 N.ar    1  UNL1       -0.2280
     15 C         140.3888  141.8929  169.7644 C.ar    1  UNL1        0.0786
     16 C         139.8062  142.9521  170.6525 C.3     1  UNL1        0.0538
     17 C         140.6071  142.0050  168.2846 C.ar    1  UNL1        0.0963
     18 C         138.2048  139.2319  165.9058 C.3     1  UNL1        0.2525
     19 O         139.0836  140.4312  165.7076 O.3     1  UNL1       -0.4700
     20 C         142.0705  138.8312  158.3704 C.3     1  UNL1        0.1556
     21 C         142.7682  137.9166  157.4076 C.ar    1  UNL1        0.0023
     22 C         143.5196  138.4873  156.2415 C.ar    1  UNL1       -0.0023
     23 C         144.2173  137.5728  155.2787 C.ar    1  UNL1       -0.0002
     24 C         144.1636  136.0876  155.4821 C.ar    1  UNL1        0.0031
     25 C         143.4122  135.5169  156.6482 C.ar    1  UNL1        0.0388
     26 C         142.7145  136.4315  157.6109 C.ar    1  UNL1        0.0008
     27 C         143.3585  134.0318  156.8516 C.ar    1  UNL1        0.2033
     28 N         142.2141  133.1328  156.4877 N.ar    1  UNL1       -0.0560
     29 O         142.5882  131.7303  156.8657 O.2     1  UNL1       -0.3370
     30 C         143.9636  131.7624  157.4633 C.ar    1  UNL1        0.2371
     31 C         144.7287  130.5797  157.9791 C.3     1  UNL1        0.0978
     32 N         144.4397  133.1848  157.4545 N.ar    1  UNL1       -0.1907
@<TRIPOS>BOND
     1    18    19    1
     2    19     6    1
     3     6     7   ar
     4     7     8   ar
     5     8     1    1
     6     1     2   ar
     7     2     3   ar
     8     3    20    1
     9    20    21    1
    10    21    22   ar
    11    22    23   ar
    12    23    24   ar
    13    24    25   ar
    14    25    27    1
    15    27    28   ar
    16    28    29   ar
    17    29    30   ar
    18    30    31    1
    19    30    32   ar
    20    25    26   ar
    21     3     4   ar
    22     4     5   ar
    23     8     9   ar
    24     9    10   ar
    25    10    11   ar
    26    11    12    1
    27    12    13   ar
    28    13    14   ar
    29    14    15   ar
    30    15    16    1
    31    15    17   ar
    32    11     6   ar
    33    17    12   ar
    34     5     1   ar
    35    26    21   ar
    36    32    27   ar
@<TRIPOS>MOLECULE
*****
 32 36 0 0 0
SMALL
GASTEIGER

@<TRIPOS>ATOM
      1 C         140.8194  144.5747  162.3279 C.ar    1  UNL1        0.1233
      2 C         141.5374  144.4679  161.0153 C.ar    1  UNL1        0.1179
      3 N         140.8123  145.3236  160.0193 N.ar    1  UNL1       -0.2257
      4 N         139.6460  145.9592  160.7164 N.ar    1  UNL1       -0.0635
      5 N         139.6504  145.4964  162.1432 N.ar    1  UNL1       -0.1287
      6 C         142.9758  142.6495  165.0470 C.ar    1  UNL1        0.1547
      7 C         142.5922  143.3426  163.7733 C.ar    1  UNL1        0.0400
      8 C         141.2029  143.8816  163.6017 C.ar    1  UNL1        0.0241
      9 C         140.1972  143.7273  164.7038 C.ar    1  UNL1        0.0033
     10 C         140.5808  143.0342  165.9775 C.ar    1  UNL1        0.0207
     11 C         141.9700  142.4953  166.1491 C.ar    1  UNL1        0.0994
     12 N         142.3536  141.8021  167.4229 N.ar    1  UNL1       -0.2839
     13 C         143.1314  142.4049  168.5551 C.ar    1  UNL1        0.1826
     14 N         143.2851  141.3598  169.6200 N.ar    1  UNL1       -0.2280
     15 C         142.6023  140.1111  169.1461 C.ar    1  UNL1        0.0786
     16 C         142.5113  138.8163  169.8980 C.3     1  UNL1        0.0538
     17 C         142.0266  140.3845  167.7882 C.ar    1  UNL1        0.0963
     18 C         145.1731  141.7232  164.0158 C.3     1  UNL1        0.2525
     19 O         144.3651  142.1106  165.2186 O.3     1  UNL1       -0.4700
     20 C         141.1875  145.5107  158.5791 C.3     1  UNL1        0.1556
     21 C         140.1607  145.3096  157.5043 C.ar    1  UNL1        0.0023
     22 C         139.8352  146.4282  156.5592 C.ar    1  UNL1       -0.0023
     23 C         138.8084  146.2270  155.4844 C.ar    1  UNL1       -0.0002
     24 C         138.1071  144.9074  155.3546 C.ar    1  UNL1        0.0031
     25 C         138.4325  143.7890  156.2997 C.ar    1  UNL1        0.0388
     26 C         139.4593  143.9901  157.3745 C.ar    1  UNL1        0.0008
     27 C         137.7312  142.4694  156.1699 C.ar    1  UNL1        0.2033
     28 N         138.2748  141.1367  156.5924 N.ar    1  UNL1       -0.0560
     29 O         137.2426  140.0945  156.2784 O.2     1  UNL1       -0.3370
     30 C         136.0612  140.7831  155.6620 C.ar    1  UNL1        0.2371
     31 C         134.7993  140.1203  155.1947 C.3     1  UNL1        0.0978
     32 N         136.3631  142.2508  155.5949 N.ar    1  UNL1       -0.1907
@<TRIPOS>BOND
     1    18    19    1
     2    19     6    1
     3     6     7   ar
     4     7     8   ar
     5     8     1    1
     6     1     2   ar
     7     2     3   ar
     8     3    20    1
     9    20    21    1
    10    21    22   ar
    11    22    23   ar
    12    23    24   ar
    13    24    25   ar
    14    25    27    1
    15    27    28   ar
    16    28    29   ar
    17    29    30   ar
    18    30    31    1
    19    30    32   ar
    20    25    26   ar
    21     3     4   ar
    22     4     5   ar
    23     8     9   ar
    24     9    10   ar
    25    10    11   ar
    26    11    12    1
    27    12    13   ar
    28    13    14   ar
    29    14    15   ar
    30    15    16    1
    31    15    17   ar
    32    11     6   ar
    33    17    12   ar
    34     5     1   ar
    35    26    21   ar
    36    32    27   ar
@<TRIPOS>MOLECULE
*****
 32 36 0 0 0
SMALL
GASTEIGER

@<TRIPOS>ATOM
      1 C         141.1828  138.5584  160.6674 C.ar    1  UNL1        0.1233
      2 C         142.3528  137.9977  159.9146 C.ar    1  UNL1        0.1179
      3 N         141.9692  137.8996  158.4678 N.ar    1  UNL1       -0.2257
      4 N         140.5620  138.3997  158.3264 N.ar    1  UNL1       -0.0635
      5 N         140.0760  138.8068  159.6858 N.ar    1  UNL1       -0.1287
      6 C         140.9175  140.4937  164.1220 C.ar    1  UNL1        0.1547
      7 C         140.9714  140.2280  162.6467 C.ar    1  UNL1        0.0400
      8 C         141.1289  138.8240  162.1427 C.ar    1  UNL1        0.0241
      9 C         141.2324  137.6857  163.1140 C.ar    1  UNL1        0.0033
     10 C         141.1785  137.9514  164.5893 C.ar    1  UNL1        0.0207
     11 C         141.0211  139.3554  165.0933 C.ar    1  UNL1        0.0994
     12 N         140.9672  139.6210  166.5686 N.ar    1  UNL1       -0.2839
     13 C         142.1409  139.6538  167.5021 C.ar    1  UNL1        0.1826
     14 N         141.6292  139.9536  168.8798 N.ar    1  UNL1       -0.2280
     15 C         140.1391  140.1060  168.7980 C.ar    1  UNL1        0.0786
     16 C         139.2197  140.4105  169.9434 C.3     1  UNL1        0.0538
     17 C         139.7300  139.9004  167.3696 C.ar    1  UNL1        0.0963
     18 C         141.9725  142.7148  164.9606 C.3     1  UNL1        0.2525
     19 O         140.7600  141.8977  164.6260 O.3     1  UNL1       -0.4700
     20 C         142.8399  137.3908  157.3574 C.3     1  UNL1        0.1556
     21 C         142.5564  136.0566  156.7334 C.ar    1  UNL1        0.0023
     22 C         141.6033  135.9556  155.5794 C.ar    1  UNL1       -0.0023
     23 C         141.3199  134.6213  154.9554 C.ar    1  UNL1       -0.0002
     24 C         141.9895  133.3880  155.4853 C.ar    1  UNL1        0.0031
     25 C         142.9425  133.4891  156.6392 C.ar    1  UNL1        0.0388
     26 C         143.2259  134.8233  157.2632 C.ar    1  UNL1        0.0008
     27 C         143.6121  132.2558  157.1692 C.ar    1  UNL1        0.2033
     28 N         144.9215  132.2082  157.8994 N.ar    1  UNL1       -0.0560
     29 O         145.2085  130.7766  158.2434 O.2     1  UNL1       -0.3370
     30 C         144.0764  129.9396  157.7258 C.ar    1  UNL1        0.2371
     31 C         143.9527  128.4499  157.8503 C.3     1  UNL1        0.0978
     32 N         143.0898  130.8538  157.0619 N.ar    1  UNL1       -0.1907
@<TRIPOS>BOND
     1    18    19    1
     2    19     6    1
     3     6     7   ar
     4     7     8   ar
     5     8     1    1
     6     1     2   ar
     7     2     3   ar
     8     3    20    1
     9    20    21    1
    10    21    22   ar
    11    22    23   ar
    12    23    24   ar
    13    24    25   ar
    14    25    27    1
    15    27    28   ar
    16    28    29   ar
    17    29    30   ar
    18    30    31    1
    19    30    32   ar
    20    25    26   ar
    21     3     4   ar
    22     4     5   ar
    23     8     9   ar
    24     9    10   ar
    25    10    11   ar
    26    11    12    1
    27    12    13   ar
    28    13    14   ar
    29    14    15   ar
    30    15    16    1
    31    15    17   ar
    32    11     6   ar
    33    17    12   ar
    34     5     1   ar
    35    26    21   ar
    36    32    27   ar
@<TRIPOS>MOLECULE
*****
 32 36 0 0 0
SMALL
GASTEIGER

@<TRIPOS>ATOM
      1 C         142.7056  138.1548  158.3601 C.ar    1  UNL1        0.1233
      2 C         142.7150  136.8745  157.5787 C.ar    1  UNL1        0.1179
      3 N         143.5716  137.0788  156.3644 N.ar    1  UNL1       -0.2257
      4 N         144.0917  138.4855  156.3953 N.ar    1  UNL1       -0.0635
      5 N         143.5565  139.1505  157.6287 N.ar    1  UNL1       -0.1287
      6 C         140.0037  139.4856  160.9444 C.ar    1  UNL1        0.1547
      7 C         140.7354  139.2433  159.6576 C.ar    1  UNL1        0.0400
      8 C         141.9739  138.3971  159.6469 C.ar    1  UNL1        0.0241
      9 C         142.4806  137.7931  160.9230 C.ar    1  UNL1        0.0033
     10 C         141.7489  138.0354  162.2098 C.ar    1  UNL1        0.0207
     11 C         140.5105  138.8816  162.2205 C.ar    1  UNL1        0.0994
     12 N         139.7787  139.1239  163.5074 N.ar    1  UNL1       -0.2839
     13 C         139.5615  140.4565  164.1608 C.ar    1  UNL1        0.1826
     14 N         138.7843  140.2322  165.4239 N.ar    1  UNL1       -0.2280
     15 C         138.5211  138.7609  165.5512 C.ar    1  UNL1        0.0786
     16 C         137.7745  138.0921  166.6671 C.3     1  UNL1        0.0538
     17 C         139.1357  138.0760  164.3667 C.ar    1  UNL1        0.0963
     18 C         137.4146  139.6857  160.8642 C.3     1  UNL1        0.2525
     19 O         138.7652  140.3318  160.9551 O.3     1  UNL1       -0.4700
     20 C         143.8579  136.0560  155.3051 C.3     1  UNL1        0.1556
     21 C         143.1915  134.7133  155.3594 C.ar    1  UNL1        0.0023
     22 C         141.9546  134.4567  154.5502 C.ar    1  UNL1       -0.0023
     23 C         141.2882  133.1140  154.6045 C.ar    1  UNL1       -0.0002
     24 C         141.8585  132.0279  155.4677 C.ar    1  UNL1        0.0031
     25 C         143.0953  132.2845  156.2768 C.ar    1  UNL1        0.0388
     26 C         143.7617  133.6273  156.2225 C.ar    1  UNL1        0.0008
     27 C         143.6656  131.1985  157.1400 C.ar    1  UNL1        0.2033
     28 N         144.9310  131.2821  157.9413 N.ar    1  UNL1       -0.0560
     29 O         145.1181  129.9734  158.6500 O.2     1  UNL1       -0.3370
     30 C         143.9684  129.0810  158.2868 C.ar    1  UNL1        0.2371
     31 C         143.7540  127.6779  158.7717 C.3     1  UNL1        0.0978
     32 N         143.0708  129.8381  157.3536 N.ar    1  UNL1       -0.1907
@<TRIPOS>BOND
     1    18    19    1
     2    19     6    1
     3     6     7   ar
     4     7     8   ar
     5     8     1    1
     6     1     2   ar
     7     2     3   ar
     8     3    20    1
     9    20    21    1
    10    21    22   ar
    11    22    23   ar
    12    23    24   ar
    13    24    25   ar
    14    25    27    1
    15    27    28   ar
    16    28    29   ar
    17    29    30   ar
    18    30    31    1
    19    30    32   ar
    20    25    26   ar
    21     3     4   ar
    22     4     5   ar
    23     8     9   ar
    24     9    10   ar
    25    10    11   ar
    26    11    12    1
    27    12    13   ar
    28    13    14   ar
    29    14    15   ar
    30    15    16    1
    31    15    17   ar
    32    11     6   ar
    33    17    12   ar
    34     5     1   ar
    35    26    21   ar
    36    32    27   ar
