@<TRIPOS>MOLECULE
*****
 32 35 0 0 0
SMALL
GASTEIGER

@<TRIPOS>ATOM
      1 C         141.3710  141.2028  162.2279 C.3     1  UNL1        0.0233
      2 C         140.7697  140.1059  163.0557 C.3     1  UNL1        0.0955
      3 C         140.4494  140.3466  164.5011 C.3     1  UNL1        0.1149
      4 N         139.8481  139.2496  165.3289 N.pl3   1  UNL1       -0.2586
      5 C         139.5670  137.9120  164.7111 C.3     1  UNL1        0.1167
      6 C         139.8872  137.6713  163.2656 C.3     1  UNL1        0.1151
      7 N         140.4886  138.7682  162.4379 N.pl3   1  UNL1       -0.2764
      8 C         140.8088  138.5275  160.9923 C.ar    1  UNL1        0.2204
      9 N         142.1912  138.1063  160.5905 N.ar    1  UNL1       -0.2089
     10 C         142.5115  137.8655  159.1450 C.ar    1  UNL1        0.1402
     11 C         141.4493  138.0460  158.1013 C.ar    1  UNL1        0.1773
     12 C         140.0669  138.4672  158.5032 C.ar    1  UNL1        0.1402
     13 N         139.7467  138.7079  159.9487 N.ar    1  UNL1       -0.2089
     14 O         141.7696  137.8052  156.6559 O.3     1  UNL1       -0.4675
     15 C         142.8885  136.8797  156.2796 C.3     1  UNL1        0.2329
     16 C         142.6737  135.3954  156.3021 C.ar    1  UNL1        0.0339
     17 C         143.4604  134.5381  157.2488 C.ar    1  UNL1        0.0207
     18 C         143.2456  133.0536  157.2713 C.ar    1  UNL1        0.0987
     19 N         142.2442  132.4266  156.3472 N.ar    1  UNL1       -0.2416
     20 C         141.4576  133.2840  155.4005 C.ar    1  UNL1        0.1089
     21 C         141.6723  134.7683  155.3780 C.ar    1  UNL1        0.0871
     22 C         140.8857  135.6256  154.4313 C.1     1  UNL1        0.1018
     23 N         140.0991  136.4830  153.4846 N.1     1  UNL1       -0.1908
     24 C         139.5279  139.4904  166.7744 C.ar    1  UNL1        0.3185
     25 N         140.3810  140.2412  167.7533 N.ar    1  UNL1       -0.1701
     26 C         139.6787  140.2374  169.0787 C.ar    1  UNL1        0.2766
     27 N         138.3913  139.4842  168.9190 N.ar    1  UNL1       -0.0499
     28 O         138.2982  139.0225  167.4948 O.2     1  UNL1       -0.3164
     29 C         140.1763  140.8749  170.3421 C.3     1  UNL1        0.4557
     30 F         140.6738  141.5124  171.6054 F       1  UNL1       -0.1631
     31 F         141.1782  139.7705  170.5047 F       1  UNL1       -0.1631
     32 F         139.1743  141.9793  170.1794 F       1  UNL1       -0.1631
@<TRIPOS>BOND
     1     2     1    1
     2     2     3    1
     3     3     4    1
     4     4    24    1
     5    24    25   ar
     6    25    26   ar
     7    26    29    1
     8    29    30    1
     9    29    31    1
    10    29    32    1
    11    26    27   ar
    12    27    28   ar
    13     4     5    1
    14     5     6    1
    15     6     7    1
    16     7     8    1
    17     8     9   ar
    18     9    10   ar
    19    10    11   ar
    20    11    14    1
    21    14    15    1
    22    15    16    1
    23    16    17   ar
    24    17    18   ar
    25    18    19   ar
    26    19    20   ar
    27    20    21   ar
    28    21    22    1
    29    22    23    3
    30    11    12   ar
    31    12    13   ar
    32     7     2    1
    33    13     8   ar
    34    28    24   ar
    35    21    16   ar
@<TRIPOS>MOLECULE
*****
 32 35 0 0 0
SMALL
GASTEIGER

@<TRIPOS>ATOM
      1 C         138.0684  140.4589  163.7689 C.3     1  UNL1        0.0233
      2 C         138.8283  140.5721  162.4806 C.3     1  UNL1        0.0955
      3 C         138.1011  140.8810  161.2055 C.3     1  UNL1        0.1149
      4 N         138.8610  140.9942  159.9172 N.pl3   1  UNL1       -0.2586
      5 C         140.3481  140.7985  159.9039 C.3     1  UNL1        0.1167
      6 C         141.0752  140.4896  161.1790 C.3     1  UNL1        0.1151
      7 N         140.3153  140.3764  162.4673 N.pl3   1  UNL1       -0.2764
      8 C         141.0426  140.0675  163.7423 C.ar    1  UNL1        0.2204
      9 N         141.6045  141.1821  164.5742 N.ar    1  UNL1       -0.2089
     10 C         142.3317  140.8733  165.8492 C.ar    1  UNL1        0.1402
     11 C         142.4971  139.4498  166.2924 C.ar    1  UNL1        0.1773
     12 C         141.9353  138.3352  165.4606 C.ar    1  UNL1        0.1402
     13 N         141.2080  138.6441  164.1855 N.ar    1  UNL1       -0.2089
     14 O         143.2244  139.1409  167.5674 O.3     1  UNL1       -0.4675
     15 C         142.5390  139.3345  168.8876 C.3     1  UNL1        0.2329
     16 C         142.2016  140.7169  169.3619 C.ar    1  UNL1        0.0339
     17 C         143.2814  141.6115  169.8945 C.ar    1  UNL1        0.0207
     18 C         142.9440  142.9940  170.3688 C.ar    1  UNL1        0.0987
     19 N         141.5267  143.4818  170.3106 N.ar    1  UNL1       -0.2416
     20 C         140.4469  142.5871  169.7781 C.ar    1  UNL1        0.1089
     21 C         140.7843  141.2047  169.3037 C.ar    1  UNL1        0.0871
     22 C         139.7045  140.3101  168.7712 C.1     1  UNL1        0.1018
     23 N         138.6246  139.4155  168.2386 N.1     1  UNL1       -0.1908
     24 C         138.1337  141.3031  158.6422 C.ar    1  UNL1        0.3185
     25 N         138.1506  142.6137  157.9128 N.ar    1  UNL1       -0.1701
     26 C         137.2892  142.4762  156.6925 C.ar    1  UNL1        0.2766
     27 N         136.7399  141.0806  156.6677 N.ar    1  UNL1       -0.0499
     28 O         137.2618  140.3556  157.8727 O.2     1  UNL1       -0.3164
     29 C         137.0237  143.5464  155.6755 C.3     1  UNL1        0.4557
     30 F         136.7582  144.6166  154.6586 F       1  UNL1       -0.1631
     31 F         138.2758  144.2571  156.0966 F       1  UNL1       -0.1631
     32 F         135.7716  142.8357  155.2545 F       1  UNL1       -0.1631
@<TRIPOS>BOND
     1     2     1    1
     2     2     3    1
     3     3     4    1
     4     4    24    1
     5    24    25   ar
     6    25    26   ar
     7    26    29    1
     8    29    30    1
     9    29    31    1
    10    29    32    1
    11    26    27   ar
    12    27    28   ar
    13     4     5    1
    14     5     6    1
    15     6     7    1
    16     7     8    1
    17     8     9   ar
    18     9    10   ar
    19    10    11   ar
    20    11    14    1
    21    14    15    1
    22    15    16    1
    23    16    17   ar
    24    17    18   ar
    25    18    19   ar
    26    19    20   ar
    27    20    21   ar
    28    21    22    1
    29    22    23    3
    30    11    12   ar
    31    12    13   ar
    32     7     2    1
    33    13     8   ar
    34    28    24   ar
    35    21    16   ar
@<TRIPOS>MOLECULE
*****
 32 35 0 0 0
SMALL
GASTEIGER

@<TRIPOS>ATOM
      1 C         142.9056  137.3766  160.0238 C.3     1  UNL1        0.0233
      2 C         143.0648  138.8011  159.5818 C.3     1  UNL1        0.0955
      3 C         143.2432  139.8872  160.6008 C.3     1  UNL1        0.1149
      4 N         143.4024  141.3117  160.1588 N.pl3   1  UNL1       -0.2586
      5 C         143.3832  141.6501  158.6976 C.3     1  UNL1        0.1167
      6 C         143.2048  140.5640  157.6785 C.3     1  UNL1        0.1151
      7 N         143.0456  139.1395  158.1206 N.pl3   1  UNL1       -0.2764
      8 C         142.8673  138.0534  157.1014 C.ar    1  UNL1        0.2204
      9 N         141.5166  137.4353  156.8927 N.ar    1  UNL1       -0.2089
     10 C         141.3382  136.3492  155.8736 C.ar    1  UNL1        0.1402
     11 C         142.5105  135.8813  155.0631 C.ar    1  UNL1        0.1773
     12 C         143.8611  136.4994  155.2718 C.ar    1  UNL1        0.1402
     13 N         144.0395  137.5856  156.2910 N.ar    1  UNL1       -0.2089
     14 O         142.3321  134.7952  154.0440 O.3     1  UNL1       -0.4675
     15 C         141.8875  133.4287  154.4742 C.3     1  UNL1        0.2329
     16 C         142.8765  132.3026  154.5339 C.ar    1  UNL1        0.0339
     17 C         142.9801  131.3341  153.3931 C.ar    1  UNL1        0.0207
     18 C         143.9691  130.2079  153.4529 C.ar    1  UNL1        0.0987
     19 N         144.8545  130.0501  154.6533 N.ar    1  UNL1       -0.2416
     20 C         144.7510  131.0186  155.7941 C.ar    1  UNL1        0.1089
     21 C         143.7620  132.1448  155.7344 C.ar    1  UNL1        0.0871
     22 C         143.6584  133.1133  156.8752 C.1     1  UNL1        0.1018
     23 N         143.5549  134.0817  158.0159 N.1     1  UNL1       -0.1908
     24 C         143.5808  142.3978  161.1779 C.ar    1  UNL1        0.3185
     25 N         144.1118  142.2223  162.5698 N.ar    1  UNL1       -0.1701
     26 C         144.1186  143.5661  163.2362 C.ar    1  UNL1        0.2766
     27 N         143.5918  144.5722  162.2562 N.ar    1  UNL1       -0.0499
     28 O         143.2594  143.8501  160.9841 O.2     1  UNL1       -0.3164
     29 C         144.5726  143.8534  164.6367 C.3     1  UNL1        0.4557
     30 F         145.0265  144.1407  166.0372 F       1  UNL1       -0.1631
     31 F         145.1442  142.4701  164.7352 F       1  UNL1       -0.1631
     32 F         144.0009  145.2367  164.5382 F       1  UNL1       -0.1631
@<TRIPOS>BOND
     1     2     1    1
     2     2     3    1
     3     3     4    1
     4     4    24    1
     5    24    25   ar
     6    25    26   ar
     7    26    29    1
     8    29    30    1
     9    29    31    1
    10    29    32    1
    11    26    27   ar
    12    27    28   ar
    13     4     5    1
    14     5     6    1
    15     6     7    1
    16     7     8    1
    17     8     9   ar
    18     9    10   ar
    19    10    11   ar
    20    11    14    1
    21    14    15    1
    22    15    16    1
    23    16    17   ar
    24    17    18   ar
    25    18    19   ar
    26    19    20   ar
    27    20    21   ar
    28    21    22    1
    29    22    23    3
    30    11    12   ar
    31    12    13   ar
    32     7     2    1
    33    13     8   ar
    34    28    24   ar
    35    21    16   ar
@<TRIPOS>MOLECULE
*****
 32 35 0 0 0
SMALL
GASTEIGER

@<TRIPOS>ATOM
      1 C         142.3884  142.5983  160.4507 C.3     1  UNL1        0.0233
      2 C         141.0305  142.1362  160.8896 C.3     1  UNL1        0.0955
      3 C         140.9022  141.1136  161.9793 C.3     1  UNL1        0.1149
      4 N         139.5443  140.6515  162.4182 N.pl3   1  UNL1       -0.2586
      5 C         138.3146  141.2122  161.7674 C.3     1  UNL1        0.1167
      6 C         138.4429  142.2349  160.6776 C.3     1  UNL1        0.1151
      7 N         139.8009  142.6969  160.2387 N.pl3   1  UNL1       -0.2764
      8 C         139.9291  143.7196  159.1489 C.ar    1  UNL1        0.2204
      9 N         140.0433  143.2815  157.7189 N.ar    1  UNL1       -0.2089
     10 C         140.1715  144.3041  156.6291 C.ar    1  UNL1        0.1402
     11 C         140.1856  145.7650  156.9693 C.ar    1  UNL1        0.1773
     12 C         140.0714  146.2032  158.3993 C.ar    1  UNL1        0.1402
     13 N         139.9432  145.1804  159.4891 N.ar    1  UNL1       -0.2089
     14 O         140.3139  146.7877  155.8795 O.3     1  UNL1       -0.4675
     15 C         139.0995  147.5214  155.3928 C.3     1  UNL1        0.2329
     16 C         139.2301  148.9172  154.8595 C.ar    1  UNL1        0.0339
     17 C         139.7671  149.1450  153.4775 C.ar    1  UNL1        0.0207
     18 C         139.8978  150.5409  152.9443 C.ar    1  UNL1        0.0987
     19 N         139.4915  151.7091  153.7930 N.ar    1  UNL1       -0.2416
     20 C         138.9546  151.4814  155.1749 C.ar    1  UNL1        0.1089
     21 C         138.8239  150.0855  155.7082 C.ar    1  UNL1        0.0871
     22 C         138.2869  149.8578  157.0902 C.1     1  UNL1        0.1018
     23 N         137.7500  149.6301  158.4721 N.1     1  UNL1       -0.1908
     24 C         139.4160  139.6288  163.5081 C.ar    1  UNL1        0.3185
     25 N         138.3526  139.5957  164.5654 N.ar    1  UNL1       -0.1701
     26 C         138.6080  138.4060  165.4426 C.ar    1  UNL1        0.2766
     27 N         139.8294  137.7039  164.9274 N.ar    1  UNL1       -0.0499
     28 O         140.3287  138.4596  163.7318 O.2     1  UNL1       -0.3164
     29 C         137.7864  137.9913  166.6271 C.3     1  UNL1        0.4557
     30 F         136.9647  137.5766  167.8116 F       1  UNL1       -0.1631
     31 F         137.8021  136.5723  166.1412 F       1  UNL1       -0.1631
     32 F         137.7706  139.4104  167.1130 F       1  UNL1       -0.1631
@<TRIPOS>BOND
     1     2     1    1
     2     2     3    1
     3     3     4    1
     4     4    24    1
     5    24    25   ar
     6    25    26   ar
     7    26    29    1
     8    29    30    1
     9    29    31    1
    10    29    32    1
    11    26    27   ar
    12    27    28   ar
    13     4     5    1
    14     5     6    1
    15     6     7    1
    16     7     8    1
    17     8     9   ar
    18     9    10   ar
    19    10    11   ar
    20    11    14    1
    21    14    15    1
    22    15    16    1
    23    16    17   ar
    24    17    18   ar
    25    18    19   ar
    26    19    20   ar
    27    20    21   ar
    28    21    22    1
    29    22    23    3
    30    11    12   ar
    31    12    13   ar
    32     7     2    1
    33    13     8   ar
    34    28    24   ar
    35    21    16   ar
@<TRIPOS>MOLECULE
*****
 32 35 0 0 0
SMALL
GASTEIGER

@<TRIPOS>ATOM
      1 C         140.3015  145.8814  162.5148 C.3     1  UNL1        0.0233
      2 C         140.6886  145.0795  161.3077 C.3     1  UNL1        0.0955
      3 C         140.2351  145.5101  159.9443 C.3     1  UNL1        0.1149
      4 N         140.6222  144.7082  158.7372 N.pl3   1  UNL1       -0.2586
      5 C         141.4628  143.4757  158.8935 C.3     1  UNL1        0.1167
      6 C         141.9162  143.0452  160.2569 C.3     1  UNL1        0.1151
      7 N         141.5291  143.8471  161.4640 N.pl3   1  UNL1       -0.2764
      8 C         141.9826  143.4165  162.8275 C.ar    1  UNL1        0.2204
      9 N         140.9909  142.8642  163.8080 N.ar    1  UNL1       -0.2089
     10 C         141.4444  142.4336  165.1714 C.ar    1  UNL1        0.1402
     11 C         142.8896  142.5553  165.5544 C.ar    1  UNL1        0.1773
     12 C         143.8813  143.1076  164.5738 C.ar    1  UNL1        0.1402
     13 N         143.4278  143.5382  163.2103 N.ar    1  UNL1       -0.2089
     14 O         143.3430  142.1247  166.9178 O.3     1  UNL1       -0.4675
     15 C         142.5458  141.1151  167.6892 C.3     1  UNL1        0.2329
     16 C         141.7742  141.5383  168.9039 C.ar    1  UNL1        0.0339
     17 C         141.0484  142.8509  168.9118 C.ar    1  UNL1        0.0207
     18 C         140.2769  143.2741  170.1266 C.ar    1  UNL1        0.0987
     19 N         140.2312  142.3846  171.3335 N.ar    1  UNL1       -0.2416
     20 C         140.9570  141.0719  171.3257 C.ar    1  UNL1        0.1089
     21 C         141.7285  140.6488  170.1109 C.ar    1  UNL1        0.0871
     22 C         142.4544  139.3361  170.1031 C.1     1  UNL1        0.1018
     23 N         143.1802  138.0234  170.0953 N.1     1  UNL1       -0.1908
     24 C         140.1687  145.1388  157.3737 C.ar    1  UNL1        0.3185
     25 N         140.2662  146.5250  156.8090 N.ar    1  UNL1       -0.1701
     26 C         139.6958  146.5017  155.4219 C.ar    1  UNL1        0.2766
     27 N         139.2458  145.1010  155.1293 N.ar    1  UNL1       -0.0499
     28 O         139.5380  144.2587  156.3355 O.2     1  UNL1       -0.3164
     29 C         139.5935  147.6733  154.4909 C.3     1  UNL1        0.4557
     30 F         139.4911  148.8450  153.5598 F       1  UNL1       -0.1631
     31 F         138.4375  148.2041  155.2859 F       1  UNL1       -0.1631
     32 F         140.7495  147.1426  153.6959 F       1  UNL1       -0.1631
@<TRIPOS>BOND
     1     2     1    1
     2     2     3    1
     3     3     4    1
     4     4    24    1
     5    24    25   ar
     6    25    26   ar
     7    26    29    1
     8    29    30    1
     9    29    31    1
    10    29    32    1
    11    26    27   ar
    12    27    28   ar
    13     4     5    1
    14     5     6    1
    15     6     7    1
    16     7     8    1
    17     8     9   ar
    18     9    10   ar
    19    10    11   ar
    20    11    14    1
    21    14    15    1
    22    15    16    1
    23    16    17   ar
    24    17    18   ar
    25    18    19   ar
    26    19    20   ar
    27    20    21   ar
    28    21    22    1
    29    22    23    3
    30    11    12   ar
    31    12    13   ar
    32     7     2    1
    33    13     8   ar
    34    28    24   ar
    35    21    16   ar
@<TRIPOS>MOLECULE
*****
 32 35 0 0 0
SMALL
GASTEIGER

@<TRIPOS>ATOM
      1 C         140.2143  145.5054  162.3525 C.3     1  UNL1        0.0233
      2 C         140.0388  144.7295  161.0808 C.3     1  UNL1        0.0955
      3 C         140.2011  145.4141  159.7561 C.3     1  UNL1        0.1149
      4 N         140.0256  144.6383  158.4844 N.pl3   1  UNL1       -0.2586
      5 C         139.6879  143.1778  158.5374 C.3     1  UNL1        0.1167
      6 C         139.5256  142.4932  159.8621 C.3     1  UNL1        0.1151
      7 N         139.7011  143.2690  161.1338 N.pl3   1  UNL1       -0.2764
      8 C         139.5388  142.5843  162.4586 C.ar    1  UNL1        0.2204
      9 N         138.2522  142.7162  163.2183 N.ar    1  UNL1       -0.2089
     10 C         138.0899  142.0316  164.5430 C.ar    1  UNL1        0.1402
     11 C         139.2142  141.2150  165.1080 C.ar    1  UNL1        0.1773
     12 C         140.5008  141.0831  164.3483 C.ar    1  UNL1        0.1402
     13 N         140.6631  141.7678  163.0235 N.ar    1  UNL1       -0.2089
     14 O         139.0519  140.5303  166.4327 O.3     1  UNL1       -0.4675
     15 C         140.2514  139.9754  167.1421 C.3     1  UNL1        0.2329
     16 C         141.0419  140.8465  168.0728 C.ar    1  UNL1        0.0339
     17 C         142.3178  141.4809  167.6040 C.ar    1  UNL1        0.0207
     18 C         143.1083  142.3521  168.5347 C.ar    1  UNL1        0.0987
     19 N         142.6230  142.5889  169.9341 N.ar    1  UNL1       -0.2416
     20 C         141.3471  141.9545  170.4029 C.ar    1  UNL1        0.1089
     21 C         140.5566  141.0833  169.4722 C.ar    1  UNL1        0.0871
     22 C         139.2807  140.4489  169.9410 C.1     1  UNL1        0.1018
     23 N         138.0049  139.8146  170.4098 N.1     1  UNL1       -0.1908
     24 C         140.1879  145.3230  157.1596 C.ar    1  UNL1        0.3185
     25 N         139.6550  146.6771  156.7959 N.ar    1  UNL1       -0.1701
     26 C         140.0493  146.9648  155.3775 C.ar    1  UNL1        0.2766
     27 N         140.8259  145.7883  154.8646 N.ar    1  UNL1       -0.0499
     28 O         140.9116  144.7737  155.9660 O.2     1  UNL1       -0.3164
     29 C         139.7242  148.2101  154.6072 C.3     1  UNL1        0.4557
     30 F         139.3990  149.4555  153.8369 F       1  UNL1       -0.1631
     31 F         138.7092  148.5872  155.6453 F       1  UNL1       -0.1631
     32 F         140.7391  147.8331  153.5691 F       1  UNL1       -0.1631
@<TRIPOS>BOND
     1     2     1    1
     2     2     3    1
     3     3     4    1
     4     4    24    1
     5    24    25   ar
     6    25    26   ar
     7    26    29    1
     8    29    30    1
     9    29    31    1
    10    29    32    1
    11    26    27   ar
    12    27    28   ar
    13     4     5    1
    14     5     6    1
    15     6     7    1
    16     7     8    1
    17     8     9   ar
    18     9    10   ar
    19    10    11   ar
    20    11    14    1
    21    14    15    1
    22    15    16    1
    23    16    17   ar
    24    17    18   ar
    25    18    19   ar
    26    19    20   ar
    27    20    21   ar
    28    21    22    1
    29    22    23    3
    30    11    12   ar
    31    12    13   ar
    32     7     2    1
    33    13     8   ar
    34    28    24   ar
    35    21    16   ar
@<TRIPOS>MOLECULE
*****
 32 35 0 0 0
SMALL
GASTEIGER

@<TRIPOS>ATOM
      1 C         142.3643  139.3190  160.4748 C.3     1  UNL1        0.0233
      2 C         141.6830  138.7465  159.2673 C.3     1  UNL1        0.0955
      3 C         142.3440  137.6536  158.4808 C.3     1  UNL1        0.1149
      4 N         141.6626  137.0810  157.2734 N.pl3   1  UNL1       -0.2586
      5 C         140.3203  137.6014  156.8524 C.3     1  UNL1        0.1167
      6 C         139.6593  138.6943  157.6388 C.3     1  UNL1        0.1151
      7 N         140.3406  139.2669  158.8463 N.pl3   1  UNL1       -0.2764
      8 C         139.6796  140.3598  159.6328 C.ar    1  UNL1        0.2204
      9 N         138.8255  140.0197  160.8181 N.ar    1  UNL1       -0.2089
     10 C         138.1645  141.1126  161.6045 C.ar    1  UNL1        0.1402
     11 C         138.3575  142.5457  161.2057 C.ar    1  UNL1        0.1773
     12 C         139.2116  142.8859  160.0205 C.ar    1  UNL1        0.1402
     13 N         139.8726  141.7929  159.2340 N.ar    1  UNL1       -0.2089
     14 O         137.6965  143.6386  161.9922 O.3     1  UNL1       -0.4675
     15 C         138.1181  143.9050  163.4069 C.3     1  UNL1        0.2329
     16 C         139.5754  143.9517  163.7590 C.ar    1  UNL1        0.0339
     17 C         140.1315  143.0025  164.7787 C.ar    1  UNL1        0.0207
     18 C         141.5889  143.0493  165.1307 C.ar    1  UNL1        0.0987
     19 N         142.4901  144.0453  164.4631 N.ar    1  UNL1       -0.2416
     20 C         141.9340  144.9945  163.4435 C.ar    1  UNL1        0.1089
     21 C         140.4767  144.9478  163.0914 C.ar    1  UNL1        0.0871
     22 C         139.9207  145.8970  162.0717 C.1     1  UNL1        0.1018
     23 N         139.3646  146.8462  161.0520 N.1     1  UNL1       -0.1908
     24 C         142.3237  135.9881  156.4869 C.ar    1  UNL1        0.3185
     25 N         143.0542  134.8089  157.0578 N.ar    1  UNL1       -0.1701
     26 C         143.5522  133.9745  155.9152 C.ar    1  UNL1        0.2766
     27 N         143.1295  134.6379  154.6379 N.ar    1  UNL1       -0.0499
     28 O         142.3702  135.8823  154.9913 O.2     1  UNL1       -0.3164
     29 C         144.3355  132.7004  156.0296 C.3     1  UNL1        0.4557
     30 F         145.1187  131.4262  156.1441 F       1  UNL1       -0.1631
     31 F         143.8218  132.2642  154.6895 F       1  UNL1       -0.1631
     32 F         144.8491  133.1365  157.3698 F       1  UNL1       -0.1631
@<TRIPOS>BOND
     1     2     1    1
     2     2     3    1
     3     3     4    1
     4     4    24    1
     5    24    25   ar
     6    25    26   ar
     7    26    29    1
     8    29    30    1
     9    29    31    1
    10    29    32    1
    11    26    27   ar
    12    27    28   ar
    13     4     5    1
    14     5     6    1
    15     6     7    1
    16     7     8    1
    17     8     9   ar
    18     9    10   ar
    19    10    11   ar
    20    11    14    1
    21    14    15    1
    22    15    16    1
    23    16    17   ar
    24    17    18   ar
    25    18    19   ar
    26    19    20   ar
    27    20    21   ar
    28    21    22    1
    29    22    23    3
    30    11    12   ar
    31    12    13   ar
    32     7     2    1
    33    13     8   ar
    34    28    24   ar
    35    21    16   ar
@<TRIPOS>MOLECULE
*****
 32 35 0 0 0
SMALL
GASTEIGER

@<TRIPOS>ATOM
      1 C         141.8579  141.1163  157.0907 C.3     1  UNL1        0.0233
      2 C         141.0948  140.8802  158.3603 C.3     1  UNL1        0.0955
      3 C         140.6945  142.0411  159.2217 C.3     1  UNL1        0.1149
      4 N         139.9313  141.8051  160.4913 N.pl3   1  UNL1       -0.2586
      5 C         139.5685  140.4081  160.8995 C.3     1  UNL1        0.1167
      6 C         139.9688  139.2472  160.0382 C.3     1  UNL1        0.1151
      7 N         140.7319  139.4832  158.7686 N.pl3   1  UNL1       -0.2764
      8 C         141.1322  138.3222  157.9072 C.ar    1  UNL1        0.2204
      9 N         140.1860  137.7978  156.8681 N.ar    1  UNL1       -0.2089
     10 C         140.5862  136.6369  156.0068 C.ar    1  UNL1        0.1402
     11 C         141.9328  136.0002  156.1845 C.ar    1  UNL1        0.1773
     12 C         142.8790  136.5246  157.2236 C.ar    1  UNL1        0.1402
     13 N         142.4787  137.6856  158.0849 N.ar    1  UNL1       -0.2089
     14 O         142.3330  134.8393  155.3232 O.3     1  UNL1       -0.4675
     15 C         141.8947  133.4510  155.6846 C.3     1  UNL1        0.2329
     16 C         142.8532  132.5128  156.3561 C.ar    1  UNL1        0.0339
     17 C         143.9788  133.0569  157.1850 C.ar    1  UNL1        0.0207
     18 C         144.9374  132.1187  157.8565 C.ar    1  UNL1        0.0987
     19 N         144.7703  130.6364  157.6992 N.ar    1  UNL1       -0.2416
     20 C         143.6448  130.0922  156.8703 C.ar    1  UNL1        0.1089
     21 C         142.6862  131.0304  156.1988 C.ar    1  UNL1        0.0871
     22 C         141.5607  130.4863  155.3699 C.1     1  UNL1        0.1018
     23 N         140.4351  129.9421  154.5411 N.1     1  UNL1       -0.1908
     24 C         139.5310  142.9661  161.3526 C.ar    1  UNL1        0.3185
     25 N         139.4214  142.9576  162.8486 N.ar    1  UNL1       -0.1701
     26 C         138.9927  144.3257  163.2897 C.ar    1  UNL1        0.2766
     27 N         138.8374  145.1797  162.0663 N.ar    1  UNL1       -0.0499
     28 O         139.1701  144.3394  160.8692 O.2     1  UNL1       -0.3164
     29 C         138.7602  144.7630  164.7056 C.3     1  UNL1        0.4557
     30 F         138.5277  145.2003  166.1215 F       1  UNL1       -0.1631
     31 F         140.2102  145.1260  164.8316 F       1  UNL1       -0.1631
     32 F         137.3102  144.4000  164.5796 F       1  UNL1       -0.1631
@<TRIPOS>BOND
     1     2     1    1
     2     2     3    1
     3     3     4    1
     4     4    24    1
     5    24    25   ar
     6    25    26   ar
     7    26    29    1
     8    29    30    1
     9    29    31    1
    10    29    32    1
    11    26    27   ar
    12    27    28   ar
    13     4     5    1
    14     5     6    1
    15     6     7    1
    16     7     8    1
    17     8     9   ar
    18     9    10   ar
    19    10    11   ar
    20    11    14    1
    21    14    15    1
    22    15    16    1
    23    16    17   ar
    24    17    18   ar
    25    18    19   ar
    26    19    20   ar
    27    20    21   ar
    28    21    22    1
    29    22    23    3
    30    11    12   ar
    31    12    13   ar
    32     7     2    1
    33    13     8   ar
    34    28    24   ar
    35    21    16   ar
@<TRIPOS>MOLECULE
*****
 32 35 0 0 0
SMALL
GASTEIGER

@<TRIPOS>ATOM
      1 C         141.5937  141.1656  162.2113 C.3     1  UNL1        0.0233
      2 C         141.0411  140.0493  163.0471 C.3     1  UNL1        0.0955
      3 C         140.6564  140.3009  164.4748 C.3     1  UNL1        0.1149
      4 N         140.1038  139.1846  165.3106 N.pl3   1  UNL1       -0.2586
      5 C         139.9361  137.8166  164.7187 C.3     1  UNL1        0.1167
      6 C         140.3209  137.5650  163.2909 C.3     1  UNL1        0.1151
      7 N         140.8734  138.6813  162.4551 N.pl3   1  UNL1       -0.2764
      8 C         141.2582  138.4296  161.0273 C.ar    1  UNL1        0.2204
      9 N         140.3449  138.8591  159.9175 N.ar    1  UNL1       -0.2089
     10 C         140.7297  138.6074  158.4898 C.ar    1  UNL1        0.1402
     11 C         142.0277  137.9262  158.1717 C.ar    1  UNL1        0.1773
     12 C         142.9409  137.4967  159.2814 C.ar    1  UNL1        0.1402
     13 N         142.5562  137.7484  160.7092 N.ar    1  UNL1       -0.2089
     14 O         142.4124  137.6745  156.7439 O.3     1  UNL1       -0.4675
     15 C         143.3179  136.5285  156.4019 C.3     1  UNL1        0.2329
     16 C         142.9182  135.5481  155.3394 C.ar    1  UNL1        0.0339
     17 C         142.2109  136.0257  154.1059 C.ar    1  UNL1        0.0207
     18 C         141.8112  135.0452  153.0434 C.ar    1  UNL1        0.0987
     19 N         142.1189  133.5871  153.2144 N.ar    1  UNL1       -0.2416
     20 C         142.8262  133.1095  154.4479 C.ar    1  UNL1        0.1089
     21 C         143.2259  134.0899  155.5104 C.ar    1  UNL1        0.0871
     22 C         143.9332  133.6123  156.7439 C.1     1  UNL1        0.1018
     23 N         144.6405  133.1346  157.9774 N.1     1  UNL1       -0.1908
     24 C         139.7190  139.4363  166.7385 C.ar    1  UNL1        0.3185
     25 N         140.5507  140.1493  167.7632 N.ar    1  UNL1       -0.1701
     26 C         139.7807  140.1728  169.0502 C.ar    1  UNL1        0.2766
     27 N         138.4731  139.4744  168.8210 N.ar    1  UNL1       -0.0499
     28 O         138.4350  139.0193  167.3922 O.2     1  UNL1       -0.3164
     29 C         140.2379  140.7870  170.3401 C.3     1  UNL1        0.4557
     30 F         140.6952  141.4011  171.6300 F       1  UNL1       -0.1631
     31 F         141.3065  139.7410  170.4593 F       1  UNL1       -0.1631
     32 F         139.1694  141.8329  170.2209 F       1  UNL1       -0.1631
@<TRIPOS>BOND
     1     2     1    1
     2     2     3    1
     3     3     4    1
     4     4    24    1
     5    24    25   ar
     6    25    26   ar
     7    26    29    1
     8    29    30    1
     9    29    31    1
    10    29    32    1
    11    26    27   ar
    12    27    28   ar
    13     4     5    1
    14     5     6    1
    15     6     7    1
    16     7     8    1
    17     8     9   ar
    18     9    10   ar
    19    10    11   ar
    20    11    14    1
    21    14    15    1
    22    15    16    1
    23    16    17   ar
    24    17    18   ar
    25    18    19   ar
    26    19    20   ar
    27    20    21   ar
    28    21    22    1
    29    22    23    3
    30    11    12   ar
    31    12    13   ar
    32     7     2    1
    33    13     8   ar
    34    28    24   ar
    35    21    16   ar
