@<TRIPOS>MOLECULE
*****
 33 35 0 0 0
SMALL
GASTEIGER

@<TRIPOS>ATOM
      1 C         138.6548  143.0479  157.8063 C.ar    1  UNL1        0.1143
      2 C         138.5253  142.6543  159.2480 C.ar    1  UNL1        0.0275
      3 C         139.5673  143.4004  160.0274 C.ar    1  UNL1        0.0690
      4 C         140.3408  144.2551  159.0676 C.ar    1  UNL1        0.0717
      5 N         139.7768  144.0372  157.6948 N.ar    1  UNL1       -0.3223
      6 C         140.3578  144.7678  156.5207 C.3     1  UNL1        0.1379
      7 C         141.5027  145.7163  156.7193 C.3     1  UNL1        0.1671
      8 O         142.0667  145.9341  158.0921 O.3     1  UNL1       -0.3454
      9 C         141.4857  145.2035  159.2662 C.3     1  UNL1        0.1857
     10 N         137.9088  141.1058  156.2500 N.am    1  UNL1       -0.2650
     11 C         138.8514  140.1773  156.9568 C.3     1  UNL1        0.1157
     12 C         137.8105  142.5411  156.6748 C.2     1  UNL1        0.2653
     13 O         136.8680  143.4695  155.9680 O.2     1  UNL1       -0.2683
     14 C         137.0645  140.5990  155.1185 C.3     1  UNL1        0.1750
     15 C         137.6843  140.3426  153.7768 C.3     1  UNL1        0.0336
     16 C         135.6006  140.3488  155.3286 C.2     1  UNL1        0.3352
     17 O         134.6582  140.3871  154.1623 O.2     1  UNL1       -0.2483
     18 O         135.0790  140.0603  156.7051 O.3     1  UNL1       -0.4474
     19 C         132.9422  138.5979  156.9177 C.3     1  UNL1        0.0513
     20 C         133.6018  139.9450  156.9385 C.3     1  UNL1        0.2086
     21 C         139.7958  143.3081  161.5071 C.2     1  UNL1        0.2472
     22 O         139.8738  141.9657  162.1716 O.2     1  UNL1       -0.2701
     23 N         139.9463  144.5583  162.3222 N.am    1  UNL1       -0.2987
     24 H         139.8951  145.4395  161.8861 H       1  UNL1        0.1500
     25 C         140.1747  144.4660  163.8019 C.3     1  UNL1        0.0943
     26 C         141.5268  144.0877  164.3298 C.ar    1  UNL1       -0.0045
     27 C         141.6668  142.9287  165.2717 C.ar    1  UNL1       -0.0027
     28 C         143.0189  142.5504  165.7996 C.ar    1  UNL1       -0.0003
     29 C         144.2310  143.3311  165.3857 C.ar    1  UNL1       -0.0000
     30 C         144.0910  144.4902  164.4439 C.ar    1  UNL1       -0.0003
     31 C         142.7389  144.8684  163.9159 C.ar    1  UNL1       -0.0027
     32 C         139.0511  144.7519  164.7534 C.3     1  UNL1        0.0241
     33 C         137.7482  144.0213  164.6166 C.3     1  UNL1        0.0021
@<TRIPOS>BOND
     1    19    20    1
     2    20    18    1
     3    18    16    1
     4    16    17    2
     5    16    14    1
     6    14    15    1
     7    14    10    1
     8    10    11    1
     9    10    12   am
    10    12    13    2
    11    12     1    1
    12     1     2   ar
    13     2     3   ar
    14     3    21    1
    15    21    22    2
    16    21    23   am
    17    23    25    1
    18    25    32    1
    19    32    33    1
    20    25    26    1
    21    26    27   ar
    22    27    28   ar
    23    28    29   ar
    24    29    30   ar
    25    30    31   ar
    26     3     4   ar
    27     4     5   ar
    28     5     6    1
    29     6     7    1
    30     7     8    1
    31     8     9    1
    32     5     1   ar
    33    31    26   ar
    34     9     4    1
    35    23    24    1
@<TRIPOS>MOLECULE
*****
 33 35 0 0 0
SMALL
GASTEIGER

@<TRIPOS>ATOM
      1 C         140.0688  139.3944  159.9757 C.ar    1  UNL1        0.1143
      2 C         141.1395  138.4510  159.5138 C.ar    1  UNL1        0.0275
      3 C         140.9465  138.2140  158.0453 C.ar    1  UNL1        0.0690
      4 C         139.7564  139.0109  157.5996 C.ar    1  UNL1        0.0717
      5 N         139.2139  139.7405  158.7927 N.ar    1  UNL1       -0.3223
      6 C         138.0117  140.6256  158.6477 C.3     1  UNL1        0.1379
      7 C         137.3520  140.7813  157.3096 C.3     1  UNL1        0.1671
      8 O         137.8945  140.0517  156.1165 O.3     1  UNL1       -0.3454
      9 C         139.0967  139.1666  156.2615 C.3     1  UNL1        0.1857
     10 N         138.7906  139.3466  162.2372 N.am    1  UNL1       -0.2650
     11 C         137.8800  138.2825  161.7000 C.3     1  UNL1        0.1157
     12 C         139.8850  139.9026  161.3750 C.2     1  UNL1        0.2653
     13 O         140.7955  140.9666  161.9122 O.2     1  UNL1       -0.2683
     14 C         138.6068  139.8547  163.6365 C.3     1  UNL1        0.1750
     15 C         139.0627  139.0265  164.8010 C.3     1  UNL1        0.0336
     16 C         137.9672  141.1911  163.8712 C.2     1  UNL1        0.3352
     17 O         136.9094  141.6914  162.9327 O.2     1  UNL1       -0.2483
     18 O         138.3854  142.0271  165.0443 O.3     1  UNL1       -0.4474
     19 C         138.7001  144.6048  164.9642 C.3     1  UNL1        0.0513
     20 C         139.2679  143.2222  164.8370 C.3     1  UNL1        0.2086
     21 C         141.7947  137.3345  157.1751 C.2     1  UNL1        0.2472
     22 O         143.2718  137.5759  157.0780 O.2     1  UNL1       -0.2701
     23 N         141.1655  136.2134  156.4021 N.am    1  UNL1       -0.2987
     24 H         140.1959  136.0549  156.4658 H       1  UNL1        0.1500
     25 C         142.0136  135.3339  155.5319 C.3     1  UNL1        0.0943
     26 C         142.6142  134.0790  156.0928 C.ar    1  UNL1       -0.0045
     27 C         143.7947  134.1595  157.0147 C.ar    1  UNL1       -0.0027
     28 C         144.3952  132.9046  157.5755 C.ar    1  UNL1       -0.0003
     29 C         143.8152  131.5692  157.2146 C.ar    1  UNL1       -0.0000
     30 C         142.6347  131.4887  156.2927 C.ar    1  UNL1       -0.0003
     31 C         142.0342  132.7436  155.7318 C.ar    1  UNL1       -0.0027
     32 C         142.2612  135.7093  154.1010 C.3     1  UNL1        0.0241
     33 C         142.0417  137.1223  153.6476 C.3     1  UNL1        0.0021
@<TRIPOS>BOND
     1    19    20    1
     2    20    18    1
     3    18    16    1
     4    16    17    2
     5    16    14    1
     6    14    15    1
     7    14    10    1
     8    10    11    1
     9    10    12   am
    10    12    13    2
    11    12     1    1
    12     1     2   ar
    13     2     3   ar
    14     3    21    1
    15    21    22    2
    16    21    23   am
    17    23    25    1
    18    25    32    1
    19    32    33    1
    20    25    26    1
    21    26    27   ar
    22    27    28   ar
    23    28    29   ar
    24    29    30   ar
    25    30    31   ar
    26     3     4   ar
    27     4     5   ar
    28     5     6    1
    29     6     7    1
    30     7     8    1
    31     8     9    1
    32     5     1   ar
    33    31    26   ar
    34     9     4    1
    35    23    24    1
@<TRIPOS>MOLECULE
*****
 33 35 0 0 0
SMALL
GASTEIGER

@<TRIPOS>ATOM
      1 C         140.7895  142.1601  160.5460 C.ar    1  UNL1        0.1143
      2 C         140.3944  141.2209  161.6469 C.ar    1  UNL1        0.0275
      3 C         139.7213  142.0229  162.7210 C.ar    1  UNL1        0.0690
      4 C         139.7003  143.4577  162.2839 C.ar    1  UNL1        0.0717
      5 N         140.3605  143.5424  160.9397 N.ar    1  UNL1       -0.3223
      6 C         140.4857  144.8674  160.2478 C.3     1  UNL1        0.1379
      7 C         139.9507  146.1076  160.9002 C.3     1  UNL1        0.1671
      8 O         139.2905  146.0229  162.2444 O.3     1  UNL1       -0.3454
      9 C         139.1653  144.6979  162.9363 C.3     1  UNL1        0.1857
     10 N         142.9571  142.0561  159.1174 N.am    1  UNL1       -0.2650
     11 C         143.7226  142.7061  160.2315 C.3     1  UNL1        0.1157
     12 C         141.4905  141.7830  159.2746 C.2     1  UNL1        0.2653
     13 O         140.7250  141.1330  158.1604 O.2     1  UNL1       -0.2683
     14 C         143.6581  141.6790  157.8460 C.3     1  UNL1        0.1750
     15 C         143.7914  142.6809  156.7376 C.3     1  UNL1        0.0336
     16 C         144.2258  140.3002  157.6830 C.2     1  UNL1        0.3352
     17 O         145.0002  139.9492  156.4472 O.2     1  UNL1       -0.2483
     18 O         144.0190  139.2724  158.7557 O.3     1  UNL1       -0.4474
     19 C         142.3637  137.8118  157.3857 C.3     1  UNL1        0.0513
     20 C         142.8288  138.3611  158.7019 C.3     1  UNL1        0.2086
     21 C         139.1665  141.4847  164.0065 C.2     1  UNL1        0.2472
     22 O         137.7673  141.8297  164.4223 O.2     1  UNL1       -0.2701
     23 N         140.0111  140.6013  164.8763 N.am    1  UNL1       -0.2987
     24 H         140.9295  140.3748  164.6034 H       1  UNL1        0.1500
     25 C         139.4563  140.0630  166.1618 C.3     1  UNL1        0.0943
     26 C         139.7166  140.7840  167.4511 C.ar    1  UNL1       -0.0045
     27 C         139.2983  140.1672  168.7529 C.ar    1  UNL1       -0.0027
     28 C         139.5586  140.8882  170.0423 C.ar    1  UNL1       -0.0003
     29 C         140.2371  142.2259  170.0298 C.ar    1  UNL1       -0.0000
     30 C         140.6554  142.8426  168.7281 C.ar    1  UNL1       -0.0003
     31 C         140.3952  142.1216  167.4387 C.ar    1  UNL1       -0.0027
     32 C         138.6413  138.8038  166.1578 C.3     1  UNL1        0.0241
     33 C         138.9165  137.7356  165.1414 C.3     1  UNL1        0.0021
@<TRIPOS>BOND
     1    19    20    1
     2    20    18    1
     3    18    16    1
     4    16    17    2
     5    16    14    1
     6    14    15    1
     7    14    10    1
     8    10    11    1
     9    10    12   am
    10    12    13    2
    11    12     1    1
    12     1     2   ar
    13     2     3   ar
    14     3    21    1
    15    21    22    2
    16    21    23   am
    17    23    25    1
    18    25    32    1
    19    32    33    1
    20    25    26    1
    21    26    27   ar
    22    27    28   ar
    23    28    29   ar
    24    29    30   ar
    25    30    31   ar
    26     3     4   ar
    27     4     5   ar
    28     5     6    1
    29     6     7    1
    30     7     8    1
    31     8     9    1
    32     5     1   ar
    33    31    26   ar
    34     9     4    1
    35    23    24    1
@<TRIPOS>MOLECULE
*****
 33 35 0 0 0
SMALL
GASTEIGER

@<TRIPOS>ATOM
      1 C         139.6749  138.5305  157.9369 C.ar    1  UNL1        0.1143
      2 C         139.9980  138.3913  159.3951 C.ar    1  UNL1        0.0275
      3 C         139.5592  139.6466  160.0890 C.ar    1  UNL1        0.0690
      4 C         138.9649  140.5617  159.0597 C.ar    1  UNL1        0.0717
      5 N         139.0364  139.8719  157.7297 N.ar    1  UNL1       -0.3223
      6 C         138.5109  140.5544  156.5016 C.3     1  UNL1        0.1379
      7 C         137.9139  141.9266  156.6037 C.3     1  UNL1        0.1671
      8 O         137.8424  142.6164  157.9338 O.3     1  UNL1       -0.3454
      9 C         138.3679  141.9340  159.1618 C.3     1  UNL1        0.1857
     10 N         141.3549  137.1872  156.4797 N.am    1  UNL1       -0.2650
     11 C         142.4982  137.8890  157.1507 C.3     1  UNL1        0.1157
     12 C         139.9432  137.5079  156.8728 C.2     1  UNL1        0.2653
     13 O         138.8000  136.8060  156.2018 O.2     1  UNL1       -0.2683
     14 C         141.6231  136.1645  155.4156 C.3     1  UNL1        0.1750
     15 C         141.3467  136.4886  153.9774 C.3     1  UNL1        0.0336
     16 C         142.1679  134.8180  155.7898 C.2     1  UNL1        0.3352
     17 O         141.3590  133.5824  155.5271 O.2     1  UNL1       -0.2483
     18 O         143.5214  134.7070  156.4266 O.3     1  UNL1       -0.4474
     19 C         144.6282  132.7669  157.7537 C.3     1  UNL1        0.0513
     20 C         143.6893  133.9356  157.7021 C.3     1  UNL1        0.2086
     21 C         139.6914  139.9361  161.5548 C.2     1  UNL1        0.2472
     22 O         141.0416  140.2159  162.1453 O.2     1  UNL1       -0.2701
     23 N         138.4734  139.9457  162.4303 N.am    1  UNL1       -0.2987
     24 H         137.5872  139.7620  162.0428 H       1  UNL1        0.1500
     25 C         138.6056  140.2352  163.8962 C.3     1  UNL1        0.0943
     26 C         138.7257  141.6523  164.3730 C.ar    1  UNL1       -0.0045
     27 C         137.6026  142.6192  164.1414 C.ar    1  UNL1       -0.0027
     28 C         137.7228  144.0363  164.6182 C.ar    1  UNL1       -0.0003
     29 C         138.9660  144.4865  165.3266 C.ar    1  UNL1       -0.0000
     30 C         140.0891  143.5195  165.5582 C.ar    1  UNL1       -0.0003
     31 C         139.9689  142.1024  165.0814 C.ar    1  UNL1       -0.0027
     32 C         138.6177  139.1075  164.8852 C.3     1  UNL1        0.0241
     33 C         138.0678  139.3144  166.2653 C.3     1  UNL1        0.0021
@<TRIPOS>BOND
     1    19    20    1
     2    20    18    1
     3    18    16    1
     4    16    17    2
     5    16    14    1
     6    14    15    1
     7    14    10    1
     8    10    11    1
     9    10    12   am
    10    12    13    2
    11    12     1    1
    12     1     2   ar
    13     2     3   ar
    14     3    21    1
    15    21    22    2
    16    21    23   am
    17    23    25    1
    18    25    32    1
    19    32    33    1
    20    25    26    1
    21    26    27   ar
    22    27    28   ar
    23    28    29   ar
    24    29    30   ar
    25    30    31   ar
    26     3     4   ar
    27     4     5   ar
    28     5     6    1
    29     6     7    1
    30     7     8    1
    31     8     9    1
    32     5     1   ar
    33    31    26   ar
    34     9     4    1
    35    23    24    1
@<TRIPOS>MOLECULE
*****
 33 35 0 0 0
SMALL
GASTEIGER

@<TRIPOS>ATOM
      1 C         139.0889  142.1326  158.0607 C.ar    1  UNL1        0.1143
      2 C         138.5424  141.9667  159.4477 C.ar    1  UNL1        0.0275
      3 C         139.1964  142.9892  160.3289 C.ar    1  UNL1        0.0690
      4 C         140.1472  143.7871  159.4866 C.ar    1  UNL1        0.0717
      5 N         140.0808  143.2577  158.0847 N.ar    1  UNL1       -0.3223
      6 C         140.9319  143.8684  157.0112 C.3     1  UNL1        0.1379
      7 C         141.8496  145.0086  157.3397 C.3     1  UNL1        0.1671
      8 O         141.9160  145.5380  158.7416 O.3     1  UNL1       -0.3454
      9 C         141.0648  144.9273  159.8150 C.3     1  UNL1        0.1857
     10 N         137.7448  141.8678  155.8531 N.am    1  UNL1       -0.2650
     11 C         137.1582  143.2348  156.0462 C.3     1  UNL1        0.1157
     12 C         138.7102  141.3167  156.8603 C.2     1  UNL1        0.2653
     13 O         139.2967  139.9498  156.6671 O.2     1  UNL1       -0.2683
     14 C         137.3660  141.0519  154.6527 C.3     1  UNL1        0.1750
     15 C         138.1699  141.1569  153.3906 C.3     1  UNL1        0.0336
     16 C         136.1835  140.1312  154.7144 C.2     1  UNL1        0.3352
     17 O         136.3728  138.6915  155.0906 O.2     1  UNL1       -0.2483
     18 O         134.8117  140.6501  154.4000 O.3     1  UNL1       -0.4474
     19 C         133.3552  140.0411  156.4635 C.3     1  UNL1        0.0513
     20 C         133.8947  141.0671  155.5114 C.3     1  UNL1        0.2086
     21 C         138.9440  143.1804  161.7951 C.2     1  UNL1        0.2472
     22 O         137.6446  143.7660  162.2624 O.2     1  UNL1       -0.2701
     23 N         139.9912  142.7858  162.7941 N.am    1  UNL1       -0.2987
     24 H         140.8441  142.4014  162.4875 H       1  UNL1        0.1500
     25 C         139.7388  142.9770  164.2604 C.3     1  UNL1        0.0943
     26 C         139.4416  141.7922  165.1309 C.ar    1  UNL1       -0.0045
     27 C         138.4648  140.7505  164.6719 C.ar    1  UNL1       -0.0027
     28 C         138.1675  139.5657  165.5425 C.ar    1  UNL1       -0.0003
     29 C         138.8470  139.4226  166.8721 C.ar    1  UNL1       -0.0000
     30 C         139.8238  140.4643  167.3311 C.ar    1  UNL1       -0.0003
     31 C         140.1211  141.6491  166.4605 C.ar    1  UNL1       -0.0027
     32 C         139.7837  144.3529  164.8559 C.3     1  UNL1        0.0241
     33 C         138.5580  144.9329  165.4971 C.3     1  UNL1        0.0021
@<TRIPOS>BOND
     1    19    20    1
     2    20    18    1
     3    18    16    1
     4    16    17    2
     5    16    14    1
     6    14    15    1
     7    14    10    1
     8    10    11    1
     9    10    12   am
    10    12    13    2
    11    12     1    1
    12     1     2   ar
    13     2     3   ar
    14     3    21    1
    15    21    22    2
    16    21    23   am
    17    23    25    1
    18    25    32    1
    19    32    33    1
    20    25    26    1
    21    26    27   ar
    22    27    28   ar
    23    28    29   ar
    24    29    30   ar
    25    30    31   ar
    26     3     4   ar
    27     4     5   ar
    28     5     6    1
    29     6     7    1
    30     7     8    1
    31     8     9    1
    32     5     1   ar
    33    31    26   ar
    34     9     4    1
    35    23    24    1
@<TRIPOS>MOLECULE
*****
 33 35 0 0 0
SMALL
GASTEIGER

@<TRIPOS>ATOM
      1 C         140.0776  139.3867  160.1207 C.ar    1  UNL1        0.1143
      2 C         141.1592  138.4663  159.6378 C.ar    1  UNL1        0.0275
      3 C         140.9774  138.2718  158.1616 C.ar    1  UNL1        0.0690
      4 C         139.7834  139.0718  157.7322 C.ar    1  UNL1        0.0717
      5 N         139.2273  139.7609  158.9430 N.ar    1  UNL1       -0.3223
      6 C         138.0186  140.6400  158.8166 C.3     1  UNL1        0.1379
      7 C         137.3659  140.8301  157.4795 C.3     1  UNL1        0.1671
      8 O         137.9220  140.1410  156.2688 O.3     1  UNL1       -0.3454
      9 C         139.1308  139.2619  156.3951 C.3     1  UNL1        0.1857
     10 N         138.7910  139.2548  162.3740 N.am    1  UNL1       -0.2650
     11 C         137.8982  138.1938  161.8022 C.3     1  UNL1        0.1157
     12 C         139.8808  139.8512  161.5333 C.2     1  UNL1        0.2653
     13 O         140.7736  140.9122  162.1052 O.2     1  UNL1       -0.2683
     14 C         138.5942  139.7193  163.7867 C.3     1  UNL1        0.1750
     15 C         137.8503  140.9927  164.0605 C.3     1  UNL1        0.0336
     16 C         139.1413  138.9105  164.9253 C.2     1  UNL1        0.3352
     17 O         139.1320  139.4716  166.3163 O.2     1  UNL1       -0.2483
     18 O         139.6978  137.5406  164.6729 O.3     1  UNL1       -0.4474
     19 C         142.2006  138.0945  165.0958 C.3     1  UNL1        0.0513
     20 C         141.1441  137.3733  164.3123 C.3     1  UNL1        0.2086
     21 C         141.8383  137.4257  157.2712 C.2     1  UNL1        0.2472
     22 O         143.3131  137.6856  157.1867 O.2     1  UNL1       -0.2701
     23 N         141.2244  136.3195  156.4652 N.am    1  UNL1       -0.2987
     24 H         140.2564  136.1488  156.5206 H       1  UNL1        0.1500
     25 C         142.0853  135.4734  155.5747 C.3     1  UNL1        0.0943
     26 C         142.6262  134.1670  156.0756 C.ar    1  UNL1       -0.0045
     27 C         141.9294  132.8847  155.7294 C.ar    1  UNL1       -0.0027
     28 C         142.4702  131.5783  156.2302 C.ar    1  UNL1       -0.0003
     29 C         143.7080  131.5543  157.0772 C.ar    1  UNL1       -0.0000
     30 C         144.4049  132.8367  157.4234 C.ar    1  UNL1       -0.0003
     31 C         143.8640  134.1431  156.9226 C.ar    1  UNL1       -0.0027
     32 C         142.4054  135.9338  154.1835 C.3     1  UNL1        0.0241
     33 C         141.6489  135.3736  153.0156 C.3     1  UNL1        0.0021
@<TRIPOS>BOND
     1    19    20    1
     2    20    18    1
     3    18    16    1
     4    16    17    2
     5    16    14    1
     6    14    15    1
     7    14    10    1
     8    10    11    1
     9    10    12   am
    10    12    13    2
    11    12     1    1
    12     1     2   ar
    13     2     3   ar
    14     3    21    1
    15    21    22    2
    16    21    23   am
    17    23    25    1
    18    25    32    1
    19    32    33    1
    20    25    26    1
    21    26    27   ar
    22    27    28   ar
    23    28    29   ar
    24    29    30   ar
    25    30    31   ar
    26     3     4   ar
    27     4     5   ar
    28     5     6    1
    29     6     7    1
    30     7     8    1
    31     8     9    1
    32     5     1   ar
    33    31    26   ar
    34     9     4    1
    35    23    24    1
@<TRIPOS>MOLECULE
*****
 33 35 0 0 0
SMALL
GASTEIGER

@<TRIPOS>ATOM
      1 C         141.6720  142.3374  161.1395 C.ar    1  UNL1        0.1143
      2 C         141.5382  141.6887  162.4853 C.ar    1  UNL1        0.0275
      3 C         140.7090  142.5884  163.3531 C.ar    1  UNL1        0.0690
      4 C         140.3303  143.7931  162.5436 C.ar    1  UNL1        0.0717
      5 N         140.9255  143.6380  161.1755 N.ar    1  UNL1       -0.3223
      6 C         140.7109  144.7011  160.1393 C.3     1  UNL1        0.1379
      7 C         139.9010  145.9192  160.4712 C.3     1  UNL1        0.1671
      8 O         139.3058  146.0743  161.8392 O.3     1  UNL1       -0.3454
      9 C         139.5205  145.0113  162.8755 C.3     1  UNL1        0.1857
     10 N         141.7016  140.9591  158.9373 N.am    1  UNL1       -0.2650
     11 C         140.2335  140.6897  159.0862 C.3     1  UNL1        0.1157
     12 C         142.4209  141.7830  159.9640 C.2     1  UNL1        0.2653
     13 O         143.8889  142.0523  159.8151 O.2     1  UNL1       -0.2683
     14 C         142.4505  140.4046  157.7619 C.3     1  UNL1        0.1750
     15 C         142.4022  141.1124  156.4403 C.3     1  UNL1        0.0336
     16 C         143.2476  139.1423  157.9080 C.2     1  UNL1        0.3352
     17 O         143.6045  138.3360  156.6946 O.2     1  UNL1       -0.2483
     18 O         143.6878  138.6865  159.2676 O.3     1  UNL1       -0.4474
     19 C         142.2752  138.1253  161.3746 C.3     1  UNL1        0.0513
     20 C         142.8421  137.7223  160.0456 C.3     1  UNL1        0.2086
     21 C         140.3257  142.3289  164.7799 C.2     1  UNL1        0.2472
     22 O         139.3691  143.2488  165.4787 O.2     1  UNL1       -0.2701
     23 N         140.8992  141.1494  165.5079 N.am    1  UNL1       -0.2987
     24 H         141.5271  140.5455  165.0493 H       1  UNL1        0.1500
     25 C         140.5159  140.8899  166.9348 C.3     1  UNL1        0.0943
     26 C         141.2049  141.6297  168.0429 C.ar    1  UNL1       -0.0045
     27 C         140.4706  142.6928  168.8049 C.ar    1  UNL1       -0.0027
     28 C         141.1596  143.4326  169.9130 C.ar    1  UNL1       -0.0003
     29 C         142.5829  143.1093  170.2591 C.ar    1  UNL1       -0.0000
     30 C         143.3171  142.0462  169.4971 C.ar    1  UNL1       -0.0003
     31 C         142.6281  141.3064  168.3890 C.ar    1  UNL1       -0.0027
     32 C         139.4436  139.8906  167.2533 C.3     1  UNL1        0.0241
     33 C         138.4494  139.4964  166.2015 C.3     1  UNL1        0.0021
@<TRIPOS>BOND
     1    19    20    1
     2    20    18    1
     3    18    16    1
     4    16    17    2
     5    16    14    1
     6    14    15    1
     7    14    10    1
     8    10    11    1
     9    10    12   am
    10    12    13    2
    11    12     1    1
    12     1     2   ar
    13     2     3   ar
    14     3    21    1
    15    21    22    2
    16    21    23   am
    17    23    25    1
    18    25    32    1
    19    32    33    1
    20    25    26    1
    21    26    27   ar
    22    27    28   ar
    23    28    29   ar
    24    29    30   ar
    25    30    31   ar
    26     3     4   ar
    27     4     5   ar
    28     5     6    1
    29     6     7    1
    30     7     8    1
    31     8     9    1
    32     5     1   ar
    33    31    26   ar
    34     9     4    1
    35    23    24    1
@<TRIPOS>MOLECULE
*****
 33 35 0 0 0
SMALL
GASTEIGER

@<TRIPOS>ATOM
      1 C         143.2104  140.0515  158.6080 C.ar    1  UNL1        0.1143
      2 C         143.6248  139.7407  160.0157 C.ar    1  UNL1        0.0275
      3 C         142.3953  139.3650  160.7885 C.ar    1  UNL1        0.0690
      4 C         141.2211  139.4436  159.8584 C.ar    1  UNL1        0.0717
      5 N         141.7249  139.8679  158.5108 N.ar    1  UNL1       -0.3223
      6 C         140.7658  140.0322  157.3692 C.3     1  UNL1        0.1379
      7 C         139.3030  139.7723  157.5753 C.3     1  UNL1        0.1671
      8 O         138.7992  139.3480  158.9230 O.3     1  UNL1       -0.3454
      9 C         139.7583  139.1836  160.0645 C.3     1  UNL1        0.1857
     10 N         144.4478  141.9232  157.2980 N.am    1  UNL1       -0.2650
     11 C         143.8627  142.9536  158.2177 C.3     1  UNL1        0.1157
     12 C         144.1216  140.4720  157.4932 C.2     1  UNL1        0.2653
     13 O         144.7067  139.4417  156.5735 O.2     1  UNL1       -0.2683
     14 C         145.3590  142.3437  156.1832 C.3     1  UNL1        0.1750
     15 C         144.7828  142.8540  154.8958 C.3     1  UNL1        0.0336
     16 C         146.8463  142.2540  156.3559 C.2     1  UNL1        0.3352
     17 O         147.5180  142.9979  157.4718 O.2     1  UNL1       -0.2483
     18 O         147.6619  141.4203  155.4126 O.3     1  UNL1       -0.4474
     19 C         150.2376  141.7301  155.2713 C.3     1  UNL1        0.0513
     20 C         148.8641  142.0109  154.7374 C.3     1  UNL1        0.2086
     21 C         142.3482  138.9785  162.2371 C.2     1  UNL1        0.2472
     22 O         142.7398  137.5928  162.6568 O.2     1  UNL1       -0.2701
     23 N         141.9096  139.9780  163.2661 N.am    1  UNL1       -0.2987
     24 H         141.6526  140.8876  162.9907 H       1  UNL1        0.1500
     25 C         141.8625  139.5915  164.7147 C.3     1  UNL1        0.0943
     26 C         140.5669  139.1575  165.3335 C.ar    1  UNL1       -0.0045
     27 C         140.0237  139.8874  166.5261 C.ar    1  UNL1       -0.0027
     28 C         138.7280  139.4534  167.1449 C.ar    1  UNL1       -0.0003
     29 C         137.9755  138.2896  166.5710 C.ar    1  UNL1       -0.0000
     30 C         138.5186  137.5598  165.3784 C.ar    1  UNL1       -0.0003
     31 C         139.8143  137.9938  164.7597 C.ar    1  UNL1       -0.0027
     32 C         143.1112  139.6390  165.5445 C.3     1  UNL1        0.0241
     33 C         143.6744  138.3757  166.1249 C.3     1  UNL1        0.0021
@<TRIPOS>BOND
     1    19    20    1
     2    20    18    1
     3    18    16    1
     4    16    17    2
     5    16    14    1
     6    14    15    1
     7    14    10    1
     8    10    11    1
     9    10    12   am
    10    12    13    2
    11    12     1    1
    12     1     2   ar
    13     2     3   ar
    14     3    21    1
    15    21    22    2
    16    21    23   am
    17    23    25    1
    18    25    32    1
    19    32    33    1
    20    25    26    1
    21    26    27   ar
    22    27    28   ar
    23    28    29   ar
    24    29    30   ar
    25    30    31   ar
    26     3     4   ar
    27     4     5   ar
    28     5     6    1
    29     6     7    1
    30     7     8    1
    31     8     9    1
    32     5     1   ar
    33    31    26   ar
    34     9     4    1
    35    23    24    1
@<TRIPOS>MOLECULE
*****
 33 35 0 0 0
SMALL
GASTEIGER

@<TRIPOS>ATOM
      1 C         138.7253  140.7259  162.1129 C.ar    1  UNL1        0.1143
      2 C         139.4112  139.8178  163.0901 C.ar    1  UNL1        0.0275
      3 C         139.6551  140.5931  164.3508 C.ar    1  UNL1        0.0690
      4 C         139.1199  141.9803  164.1528 C.ar    1  UNL1        0.0717
      5 N         138.5452  142.0624  162.7697 N.ar    1  UNL1       -0.3223
      6 C         137.9323  143.3435  162.2870 C.3     1  UNL1        0.1379
      7 C         137.8940  144.5425  163.1874 C.3     1  UNL1        0.1671
      8 O         138.4686  144.4604  164.5706 O.3     1  UNL1       -0.3454
      9 C         139.0816  143.1793  165.0533 C.3     1  UNL1        0.1857
     10 N         139.1172  140.7946  159.5454 N.am    1  UNL1       -0.2650
     11 C         140.3697  141.5920  159.7580 C.3     1  UNL1        0.1157
     12 C         138.2949  140.3615  160.7230 C.2     1  UNL1        0.2653
     13 O         137.0425  139.5640  160.5104 O.2     1  UNL1       -0.2683
     14 C         138.6869  140.4302  158.1555 C.3     1  UNL1        0.1750
     15 C         139.3935  139.3338  157.4148 C.3     1  UNL1        0.0336
     16 C         137.5499  141.1621  157.5062 C.2     1  UNL1        0.3352
     17 O         136.3962  140.3959  156.9300 O.2     1  UNL1       -0.2483
     18 O         137.5666  142.6602  157.4331 O.3     1  UNL1       -0.4474
     19 C         139.7277  144.0360  157.0005 C.3     1  UNL1        0.0513
     20 C         138.4961  143.3544  156.4821 C.3     1  UNL1        0.2086
     21 C         140.3178  140.0726  165.5918 C.2     1  UNL1        0.2472
     22 O         139.5888  139.1135  166.4854 O.2     1  UNL1       -0.2701
     23 N         141.7096  140.5112  165.9391 N.am    1  UNL1       -0.2987
     24 H         142.1881  141.1407  165.3526 H       1  UNL1        0.1500
     25 C         142.3723  139.9907  167.1800 C.3     1  UNL1        0.0943
     26 C         142.2010  140.7153  168.4821 C.ar    1  UNL1       -0.0045
     27 C         141.3926  140.0968  169.5839 C.ar    1  UNL1       -0.0027
     28 C         141.2213  140.8215  170.8860 C.ar    1  UNL1       -0.0003
     29 C         141.8582  142.1647  171.0863 C.ar    1  UNL1       -0.0000
     30 C         142.6665  142.7832  169.9844 C.ar    1  UNL1       -0.0003
     31 C         142.8379  142.0585  168.6824 C.ar    1  UNL1       -0.0027
     32 C         143.2064  138.7455  167.1187 C.3     1  UNL1        0.0241
     33 C         143.8829  138.3583  165.8372 C.3     1  UNL1        0.0021
@<TRIPOS>BOND
     1    19    20    1
     2    20    18    1
     3    18    16    1
     4    16    17    2
     5    16    14    1
     6    14    15    1
     7    14    10    1
     8    10    11    1
     9    10    12   am
    10    12    13    2
    11    12     1    1
    12     1     2   ar
    13     2     3   ar
    14     3    21    1
    15    21    22    2
    16    21    23   am
    17    23    25    1
    18    25    32    1
    19    32    33    1
    20    25    26    1
    21    26    27   ar
    22    27    28   ar
    23    28    29   ar
    24    29    30   ar
    25    30    31   ar
    26     3     4   ar
    27     4     5   ar
    28     5     6    1
    29     6     7    1
    30     7     8    1
    31     8     9    1
    32     5     1   ar
    33    31    26   ar
    34     9     4    1
    35    23    24    1
