@<TRIPOS>MOLECULE
*****
 35 39 0 0 0
SMALL
GASTEIGER

@<TRIPOS>ATOM
      1 N         141.9112  138.1038  163.9421 N.3     1  UNL1       -0.2710
      2 C         142.1616  138.5447  162.5304 C.3     1  UNL1        0.0735
      3 C         143.3743  139.3652  162.2048 C.3     1  UNL1        0.0331
      4 C         144.3366  139.7449  163.2910 C.3     1  UNL1        0.0570
      5 C         144.0861  139.3041  164.7027 C.3     1  UNL1        0.0331
      6 C         142.8734  138.4835  165.0283 C.3     1  UNL1        0.0735
      7 N         145.5493  140.5655  162.9655 N.3     1  UNL1       -0.2934
      8 H         145.6660  140.5295  161.9528 H       1  UNL1        0.1236
      9 C         145.6027  142.0127  163.3564 C.3     1  UNL1        0.1152
     10 C         144.3926  142.8817  163.1824 C.ar    1  UNL1        0.0782
     11 C         143.8899  143.2006  161.8056 C.ar    1  UNL1        0.0562
     12 C         142.6798  144.0696  161.6316 C.ar    1  UNL1        0.1752
     13 C         141.9722  144.6198  162.8345 C.ar    1  UNL1        0.1914
     14 C         142.4749  144.3008  164.2113 C.ar    1  UNL1        0.1384
     15 N         143.6851  143.4318  164.3852 N.ar    1  UNL1       -0.2434
     16 O         140.7621  145.4888  162.6605 O.3     1  UNL1       -0.4668
     17 C         140.2594  145.8077  161.2837 C.3     1  UNL1        0.2527
     18 C         140.9669  145.2576  160.0809 C.3     1  UNL1        0.2526
     19 O         142.1771  144.3886  160.2548 O.3     1  UNL1       -0.4683
     20 C         140.6984  137.2833  164.2676 C.3     1  UNL1        0.0970
     21 C         139.4741  137.9441  164.8284 C.3     1  UNL1        0.1263
     22 C         140.4771  141.6615  167.1575 C.ar    1  UNL1        0.1402
     23 C         140.0493  143.0052  166.6462 C.ar    1  UNL1        0.0370
     24 C         139.2871  143.1097  165.3585 C.ar    1  UNL1        0.0042
     25 C         138.9528  141.8706  164.5821 C.ar    1  UNL1        0.0123
     26 C         138.1907  141.9752  163.2944 C.ar    1  UNL1       -0.0157
     27 C         137.7629  143.3188  162.7830 C.3     1  UNL1        0.0312
     28 C         137.8563  140.7361  162.5180 C.ar    1  UNL1        0.0565
     29 C         138.2842  139.3923  163.0293 C.ar    1  UNL1        0.2607
     30 O         137.9498  138.1532  162.2530 O.2     1  UNL1       -0.2670
     31 N         139.0463  139.2878  164.3170 N.ar    1  UNL1       -0.2940
     32 C         139.3806  140.5270  165.0934 C.ar    1  UNL1        0.0652
     33 C         140.1428  140.4224  166.3811 C.ar    1  UNL1        0.0541
     34 C         142.6952  141.1968  168.4279 C.3     1  UNL1        0.2525
     35 O         141.2392  141.5570  168.4452 O.3     1  UNL1       -0.4714
@<TRIPOS>BOND
     1    34    35    1
     2    35    22    1
     3    22    23   ar
     4    23    24   ar
     5    24    25   ar
     6    25    26   ar
     7    26    27    1
     8    26    28   ar
     9    28    29   ar
    10    29    30    2
    11    29    31   ar
    12    31    21    1
    13    21    20    1
    14    20     1    1
    15     1     2    1
    16     2     3    1
    17     3     4    1
    18     4     7    1
    19     7     9    1
    20     9    10    1
    21    10    11   ar
    22    11    12   ar
    23    12    13   ar
    24    13    14   ar
    25    14    15   ar
    26    13    16    1
    27    16    17    1
    28    17    18    1
    29    18    19    1
    30     4     5    1
    31     5     6    1
    32    31    32   ar
    33    32    33   ar
    34    33    22   ar
    35    32    25   ar
    36     6     1    1
    37    15    10   ar
    38    19    12    1
    39     7     8    1
@<TRIPOS>MOLECULE
*****
 35 39 0 0 0
SMALL
GASTEIGER

@<TRIPOS>ATOM
      1 N         142.6631  143.2144  161.1035 N.3     1  UNL1       -0.2710
      2 C         142.5602  144.2286  162.2039 C.3     1  UNL1        0.0735
      3 C         141.2529  144.9131  162.4731 C.3     1  UNL1        0.0331
      4 C         140.0487  144.5835  161.6418 C.3     1  UNL1        0.0570
      5 C         140.1516  143.5694  160.5414 C.3     1  UNL1        0.0331
      6 C         141.4589  142.8848  160.2722 C.3     1  UNL1        0.0735
      7 N         138.7413  145.2680  161.9110 N.3     1  UNL1       -0.2934
      8 H         138.2110  145.2430  161.0400 H       1  UNL1        0.1236
      9 C         137.8320  144.7520  162.9866 C.3     1  UNL1        0.1152
     10 C         137.9436  143.3276  163.4434 C.ar    1  UNL1        0.0782
     11 C         138.6419  143.0055  164.7313 C.ar    1  UNL1        0.0562
     12 C         138.7534  141.5812  165.1881 C.ar    1  UNL1        0.1752
     13 C         138.1666  140.4789  164.3571 C.ar    1  UNL1        0.1914
     14 C         137.4682  140.8010  163.0692 C.ar    1  UNL1        0.1384
     15 N         137.3567  142.2254  162.6124 N.ar    1  UNL1       -0.2434
     16 O         138.2781  139.0545  164.8139 O.3     1  UNL1       -0.4668
     17 C         138.9764  138.7324  166.1018 C.3     1  UNL1        0.2527
     18 C         139.5632  139.8347  166.9328 C.3     1  UNL1        0.2526
     19 O         139.4517  141.2591  166.4760 O.3     1  UNL1       -0.4683
     20 C         143.9705  142.5299  160.8343 C.3     1  UNL1        0.0970
     21 C         144.0628  141.0345  160.9062 C.3     1  UNL1        0.1263
     22 C         140.7756  138.0698  161.7158 C.ar    1  UNL1        0.1402
     23 C         140.7012  137.3767  163.0439 C.ar    1  UNL1        0.0370
     24 C         141.7224  137.6718  164.1022 C.ar    1  UNL1        0.0042
     25 C         142.8181  138.6600  163.8324 C.ar    1  UNL1        0.0123
     26 C         143.8394  138.9551  164.8907 C.ar    1  UNL1       -0.0157
     27 C         143.7649  138.2620  166.2188 C.3     1  UNL1        0.0312
     28 C         144.9351  139.9433  164.6208 C.ar    1  UNL1        0.0565
     29 C         145.0096  140.6365  163.2926 C.ar    1  UNL1        0.2607
     30 O         146.1053  141.6247  163.0227 O.2     1  UNL1       -0.2670
     31 N         143.9883  140.3414  162.2343 N.ar    1  UNL1       -0.2940
     32 C         142.8926  139.3531  162.5042 C.ar    1  UNL1        0.0652
     33 C         141.8713  139.0580  161.4459 C.ar    1  UNL1        0.0541
     34 C         139.6199  138.6826  159.4711 C.3     1  UNL1        0.2525
     35 O         139.7544  137.7747  160.6575 O.3     1  UNL1       -0.4714
@<TRIPOS>BOND
     1    34    35    1
     2    35    22    1
     3    22    23   ar
     4    23    24   ar
     5    24    25   ar
     6    25    26   ar
     7    26    27    1
     8    26    28   ar
     9    28    29   ar
    10    29    30    2
    11    29    31   ar
    12    31    21    1
    13    21    20    1
    14    20     1    1
    15     1     2    1
    16     2     3    1
    17     3     4    1
    18     4     7    1
    19     7     9    1
    20     9    10    1
    21    10    11   ar
    22    11    12   ar
    23    12    13   ar
    24    13    14   ar
    25    14    15   ar
    26    13    16    1
    27    16    17    1
    28    17    18    1
    29    18    19    1
    30     4     5    1
    31     5     6    1
    32    31    32   ar
    33    32    33   ar
    34    33    22   ar
    35    32    25   ar
    36     6     1    1
    37    15    10   ar
    38    19    12    1
    39     7     8    1
@<TRIPOS>MOLECULE
*****
 35 39 0 0 0
SMALL
GASTEIGER

@<TRIPOS>ATOM
      1 N         137.8757  142.9254  162.8468 N.3     1  UNL1       -0.2710
      2 C         137.7023  141.8566  163.8849 C.3     1  UNL1        0.0735
      3 C         137.7381  140.4110  163.4862 C.3     1  UNL1        0.0331
      4 C         137.9474  140.0343  162.0495 C.3     1  UNL1        0.0570
      5 C         138.1208  141.1031  161.0114 C.3     1  UNL1        0.0331
      6 C         138.0850  142.5487  161.4101 C.3     1  UNL1        0.0735
      7 N         137.9832  138.5886  161.6507 N.3     1  UNL1       -0.2934
      8 H         137.2470  138.4561  160.9573 H       1  UNL1        0.1236
      9 C         139.2356  138.0016  161.0703 C.3     1  UNL1        0.1152
     10 C         140.5725  138.3763  161.6377 C.ar    1  UNL1        0.0782
     11 C         140.8831  138.0906  163.0771 C.ar    1  UNL1        0.0562
     12 C         142.2201  138.4653  163.6446 C.ar    1  UNL1        0.1752
     13 C         143.2466  139.1258  162.7726 C.ar    1  UNL1        0.1914
     14 C         142.9360  139.4115  161.3332 C.ar    1  UNL1        0.1384
     15 N         141.5989  139.0368  160.7658 N.ar    1  UNL1       -0.2434
     16 O         144.5835  139.5005  163.3401 O.3     1  UNL1       -0.4668
     17 C         144.8941  139.2147  164.7795 C.3     1  UNL1        0.2527
     18 C         143.8678  138.5543  165.6514 C.3     1  UNL1        0.2526
     19 O         142.5307  138.1795  165.0840 O.3     1  UNL1       -0.4683
     20 C         137.8399  144.3711  163.2456 C.3     1  UNL1        0.0970
     21 C         139.0165  144.9858  163.9439 C.3     1  UNL1        0.1263
     22 C         141.1449  142.4176  166.9645 C.ar    1  UNL1        0.1402
     23 C         142.5304  141.9180  166.6807 C.ar    1  UNL1        0.0370
     24 C         143.2066  142.2745  165.3901 C.ar    1  UNL1        0.0042
     25 C         142.4971  143.1305  164.3832 C.ar    1  UNL1        0.0123
     26 C         143.1733  143.4870  163.0926 C.ar    1  UNL1       -0.0157
     27 C         144.5588  142.9874  162.8088 C.3     1  UNL1        0.0312
     28 C         142.4639  144.3430  162.0857 C.ar    1  UNL1        0.0565
     29 C         141.0782  144.8427  162.3694 C.ar    1  UNL1        0.2607
     30 O         140.3688  145.6987  161.3626 O.2     1  UNL1       -0.2670
     31 N         140.4021  144.4862  163.6601 N.ar    1  UNL1       -0.2940
     32 C         141.1116  143.6301  164.6670 C.ar    1  UNL1        0.0652
     33 C         140.4354  143.2737  165.9576 C.ar    1  UNL1        0.0541
     34 C         140.3596  143.0796  169.3509 C.3     1  UNL1        0.2525
     35 O         140.4687  142.0611  168.2552 O.3     1  UNL1       -0.4714
@<TRIPOS>BOND
     1    34    35    1
     2    35    22    1
     3    22    23   ar
     4    23    24   ar
     5    24    25   ar
     6    25    26   ar
     7    26    27    1
     8    26    28   ar
     9    28    29   ar
    10    29    30    2
    11    29    31   ar
    12    31    21    1
    13    21    20    1
    14    20     1    1
    15     1     2    1
    16     2     3    1
    17     3     4    1
    18     4     7    1
    19     7     9    1
    20     9    10    1
    21    10    11   ar
    22    11    12   ar
    23    12    13   ar
    24    13    14   ar
    25    14    15   ar
    26    13    16    1
    27    16    17    1
    28    17    18    1
    29    18    19    1
    30     4     5    1
    31     5     6    1
    32    31    32   ar
    33    32    33   ar
    34    33    22   ar
    35    32    25   ar
    36     6     1    1
    37    15    10   ar
    38    19    12    1
    39     7     8    1
@<TRIPOS>MOLECULE
*****
 35 39 0 0 0
SMALL
GASTEIGER

@<TRIPOS>ATOM
      1 N         137.8550  140.2377  161.9166 N.3     1  UNL1       -0.2710
      2 C         138.3649  141.0573  160.7684 C.3     1  UNL1        0.0735
      3 C         138.5042  142.5439  160.9117 C.3     1  UNL1        0.0331
      4 C         138.1337  143.2109  162.2031 C.3     1  UNL1        0.0570
      5 C         137.6239  142.3914  163.3512 C.3     1  UNL1        0.0331
      6 C         137.4845  140.9048  163.2080 C.3     1  UNL1        0.0735
      7 N         138.2731  144.6976  162.3463 N.3     1  UNL1       -0.2934
      8 H         137.7280  144.9669  163.1653 H       1  UNL1        0.1236
      9 C         139.6320  145.3112  162.5098 C.3     1  UNL1        0.1152
     10 C         140.7539  144.5046  163.0934 C.ar    1  UNL1        0.0782
     11 C         141.9390  144.1455  162.2468 C.ar    1  UNL1        0.0562
     12 C         143.0608  143.3389  162.8305 C.ar    1  UNL1        0.1752
     13 C         142.9976  142.8912  164.2607 C.ar    1  UNL1        0.1914
     14 C         141.8126  143.2502  165.1073 C.ar    1  UNL1        0.1384
     15 N         140.6907  144.0569  164.5236 N.ar    1  UNL1       -0.2434
     16 O         144.1195  142.0845  164.8444 O.3     1  UNL1       -0.4668
     17 C         145.3046  141.7255  163.9978 C.3     1  UNL1        0.2527
     18 C         145.3678  142.1732  162.5676 C.3     1  UNL1        0.2526
     19 O         144.2459  142.9799  161.9839 O.3     1  UNL1       -0.4683
     20 C         137.7157  138.7511  161.7734 C.3     1  UNL1        0.0970
     21 C         138.9383  137.8929  161.6364 C.3     1  UNL1        0.1263
     22 C         143.0775  138.5838  160.0117 C.ar    1  UNL1        0.1402
     23 C         144.2315  138.7669  160.9523 C.ar    1  UNL1        0.0370
     24 C         144.0058  138.7197  162.4345 C.ar    1  UNL1        0.0042
     25 C         142.6261  138.4894  162.9760 C.ar    1  UNL1        0.0123
     26 C         142.4004  138.4423  164.4582 C.ar    1  UNL1       -0.0157
     27 C         143.5543  138.6254  165.3988 C.3     1  UNL1        0.0312
     28 C         141.0207  138.2120  164.9998 C.ar    1  UNL1        0.0565
     29 C         139.8666  138.0289  164.0592 C.ar    1  UNL1        0.2607
     30 O         138.4869  137.7986  164.6008 O.2     1  UNL1       -0.2670
     31 N         140.0923  138.0760  162.5770 N.ar    1  UNL1       -0.2940
     32 C         141.4721  138.3063  162.0355 C.ar    1  UNL1        0.0652
     33 C         141.6978  138.3535  160.5533 C.ar    1  UNL1        0.0541
     34 C         142.1841  138.2939  157.5894 C.3     1  UNL1        0.2525
     35 O         143.3032  138.6309  158.5295 O.3     1  UNL1       -0.4714
@<TRIPOS>BOND
     1    34    35    1
     2    35    22    1
     3    22    23   ar
     4    23    24   ar
     5    24    25   ar
     6    25    26   ar
     7    26    27    1
     8    26    28   ar
     9    28    29   ar
    10    29    30    2
    11    29    31   ar
    12    31    21    1
    13    21    20    1
    14    20     1    1
    15     1     2    1
    16     2     3    1
    17     3     4    1
    18     4     7    1
    19     7     9    1
    20     9    10    1
    21    10    11   ar
    22    11    12   ar
    23    12    13   ar
    24    13    14   ar
    25    14    15   ar
    26    13    16    1
    27    16    17    1
    28    17    18    1
    29    18    19    1
    30     4     5    1
    31     5     6    1
    32    31    32   ar
    33    32    33   ar
    34    33    22   ar
    35    32    25   ar
    36     6     1    1
    37    15    10   ar
    38    19    12    1
    39     7     8    1
@<TRIPOS>MOLECULE
*****
 35 39 0 0 0
SMALL
GASTEIGER

@<TRIPOS>ATOM
      1 N         141.7456  138.1568  164.6366 N.3     1  UNL1       -0.2710
      2 C         142.1435  138.1986  163.1910 C.3     1  UNL1        0.0735
      3 C         141.0952  138.1115  162.1217 C.3     1  UNL1        0.0331
      4 C         139.6490  137.9826  162.4980 C.3     1  UNL1        0.0570
      5 C         139.2510  137.9408  163.9437 C.3     1  UNL1        0.0331
      6 C         140.2993  138.0279  165.0130 C.3     1  UNL1        0.0735
      7 N         138.6006  137.8955  161.4287 N.3     1  UNL1       -0.2934
      8 H         138.1306  136.9983  161.5496 H       1  UNL1        0.1236
      9 C         137.5265  138.9391  161.3447 C.3     1  UNL1        0.1152
     10 C         137.8747  140.3887  161.5096 C.ar    1  UNL1        0.0782
     11 C         138.8586  141.0343  160.5794 C.ar    1  UNL1        0.0562
     12 C         139.2068  142.4839  160.7442 C.ar    1  UNL1        0.1752
     13 C         138.5712  143.2881  161.8394 C.ar    1  UNL1        0.1914
     14 C         137.5874  142.6426  162.7697 C.ar    1  UNL1        0.1384
     15 N         137.2391  141.1929  162.6047 N.ar    1  UNL1       -0.2434
     16 O         138.9195  144.7377  162.0043 O.3     1  UNL1       -0.4668
     17 C         139.9033  145.3832  161.0741 C.3     1  UNL1        0.2527
     18 C         140.5389  144.5791  159.9789 C.3     1  UNL1        0.2526
     19 O         140.1907  143.1294  159.8140 O.3     1  UNL1       -0.4683
     20 C         142.7940  138.2439  165.7059 C.3     1  UNL1        0.0970
     21 C         143.1228  139.5688  166.3277 C.3     1  UNL1        0.1263
     22 C         143.8393  142.5603  163.0433 C.ar    1  UNL1        0.1402
     23 C         142.9065  143.7221  162.8704 C.ar    1  UNL1        0.0370
     24 C         141.7347  143.8867  163.7923 C.ar    1  UNL1        0.0042
     25 C         141.4958  142.8896  164.8871 C.ar    1  UNL1        0.0123
     26 C         140.3241  143.0542  165.8090 C.ar    1  UNL1       -0.0157
     27 C         139.3912  144.2160  165.6361 C.3     1  UNL1        0.0312
     28 C         140.0852  142.0571  166.9038 C.ar    1  UNL1        0.0565
     29 C         141.0181  140.8952  167.0767 C.ar    1  UNL1        0.2607
     30 O         140.7792  139.8981  168.1715 O.2     1  UNL1       -0.2670
     31 N         142.1899  140.7306  166.1548 N.ar    1  UNL1       -0.2940
     32 C         142.4287  141.7278  165.0600 C.ar    1  UNL1        0.0652
     33 C         143.6005  141.5632  164.1381 C.ar    1  UNL1        0.0541
     34 C         144.8229  142.5243  160.6389 C.3     1  UNL1        0.2525
     35 O         145.0111  142.3957  162.1214 O.3     1  UNL1       -0.4714
@<TRIPOS>BOND
     1    34    35    1
     2    35    22    1
     3    22    23   ar
     4    23    24   ar
     5    24    25   ar
     6    25    26   ar
     7    26    27    1
     8    26    28   ar
     9    28    29   ar
    10    29    30    2
    11    29    31   ar
    12    31    21    1
    13    21    20    1
    14    20     1    1
    15     1     2    1
    16     2     3    1
    17     3     4    1
    18     4     7    1
    19     7     9    1
    20     9    10    1
    21    10    11   ar
    22    11    12   ar
    23    12    13   ar
    24    13    14   ar
    25    14    15   ar
    26    13    16    1
    27    16    17    1
    28    17    18    1
    29    18    19    1
    30     4     5    1
    31     5     6    1
    32    31    32   ar
    33    32    33   ar
    34    33    22   ar
    35    32    25   ar
    36     6     1    1
    37    15    10   ar
    38    19    12    1
    39     7     8    1
@<TRIPOS>MOLECULE
*****
 35 39 0 0 0
SMALL
GASTEIGER

@<TRIPOS>ATOM
      1 N         142.5827  138.4893  162.8298 N.3     1  UNL1       -0.2710
      2 C         142.1710  138.9157  161.4519 C.3     1  UNL1        0.0735
      3 C         140.7538  138.7236  160.9994 C.3     1  UNL1        0.0331
      4 C         139.7485  138.1050  161.9248 C.3     1  UNL1        0.0570
      5 C         140.1602  137.6786  163.3028 C.3     1  UNL1        0.0331
      6 C         141.5773  137.8707  163.7552 C.3     1  UNL1        0.0735
      7 N         138.3312  137.9129  161.4724 N.3     1  UNL1       -0.2934
      8 H         137.8192  137.5250  162.2647 H       1  UNL1        0.1236
      9 C         137.5372  139.0844  160.9754 C.3     1  UNL1        0.1152
     10 C         137.7941  140.4541  161.5302 C.ar    1  UNL1        0.0782
     11 C         138.5148  141.4759  160.7016 C.ar    1  UNL1        0.0562
     12 C         138.7717  142.8456  161.2564 C.ar    1  UNL1        0.1752
     13 C         138.3078  143.1936  162.6398 C.ar    1  UNL1        0.1914
     14 C         137.5871  142.1719  163.4684 C.ar    1  UNL1        0.1384
     15 N         137.3303  140.8021  162.9135 N.ar    1  UNL1       -0.2434
     16 O         138.5647  144.5634  163.1946 O.3     1  UNL1       -0.4668
     17 C         139.2854  145.5851  162.3660 C.3     1  UNL1        0.2527
     18 C         139.7492  145.2372  160.9826 C.3     1  UNL1        0.2526
     19 O         139.4924  143.8674  160.4278 O.3     1  UNL1       -0.4683
     20 C         143.9999  138.6815  163.2822 C.3     1  UNL1        0.0970
     21 C         144.3122  139.6608  164.3746 C.3     1  UNL1        0.1263
     22 C         140.4868  141.0188  166.3168 C.ar    1  UNL1        0.1402
     23 C         140.0480  142.4476  166.1911 C.ar    1  UNL1        0.0370
     24 C         140.8843  143.4238  165.4181 C.ar    1  UNL1        0.0042
     25 C         142.1594  142.9712  164.7707 C.ar    1  UNL1        0.0123
     26 C         142.9958  143.9474  163.9976 C.ar    1  UNL1       -0.0157
     27 C         142.5570  145.3762  163.8720 C.3     1  UNL1        0.0312
     28 C         144.2709  143.4947  163.3503 C.ar    1  UNL1        0.0565
     29 C         144.7097  142.0658  163.4759 C.ar    1  UNL1        0.2607
     30 O         145.9849  141.6132  162.8285 O.2     1  UNL1       -0.2670
     31 N         143.8734  141.0896  164.2490 N.ar    1  UNL1       -0.2940
     32 C         142.5982  141.5424  164.8964 C.ar    1  UNL1        0.0652
     33 C         141.7619  140.5662  165.6694 C.ar    1  UNL1        0.0541
     34 C         138.5710  139.2657  166.3962 C.3     1  UNL1        0.2525
     35 O         139.6505  140.0426  167.0898 O.3     1  UNL1       -0.4714
@<TRIPOS>BOND
     1    34    35    1
     2    35    22    1
     3    22    23   ar
     4    23    24   ar
     5    24    25   ar
     6    25    26   ar
     7    26    27    1
     8    26    28   ar
     9    28    29   ar
    10    29    30    2
    11    29    31   ar
    12    31    21    1
    13    21    20    1
    14    20     1    1
    15     1     2    1
    16     2     3    1
    17     3     4    1
    18     4     7    1
    19     7     9    1
    20     9    10    1
    21    10    11   ar
    22    11    12   ar
    23    12    13   ar
    24    13    14   ar
    25    14    15   ar
    26    13    16    1
    27    16    17    1
    28    17    18    1
    29    18    19    1
    30     4     5    1
    31     5     6    1
    32    31    32   ar
    33    32    33   ar
    34    33    22   ar
    35    32    25   ar
    36     6     1    1
    37    15    10   ar
    38    19    12    1
    39     7     8    1
@<TRIPOS>MOLECULE
*****
 35 39 0 0 0
SMALL
GASTEIGER

@<TRIPOS>ATOM
      1 N         138.2463  139.9315  163.6821 N.3     1  UNL1       -0.2710
      2 C         138.2030  140.3240  162.2350 C.3     1  UNL1        0.0735
      3 C         137.9865  141.7583  161.8531 C.3     1  UNL1        0.0331
      4 C         137.8135  142.8001  162.9182 C.3     1  UNL1        0.0570
      5 C         137.8568  142.4076  164.3653 C.3     1  UNL1        0.0331
      6 C         138.0732  140.9734  164.7473 C.3     1  UNL1        0.0735
      7 N         137.5970  144.2345  162.5363 N.3     1  UNL1       -0.2934
      8 H         136.8654  144.5951  163.1488 H       1  UNL1        0.1236
      9 C         138.7361  145.2082  162.6023 C.3     1  UNL1        0.1152
     10 C         140.1507  144.7121  162.5528 C.ar    1  UNL1        0.0782
     11 C         140.7095  144.1657  161.2725 C.ar    1  UNL1        0.0562
     12 C         142.1242  143.6696  161.2230 C.ar    1  UNL1        0.1752
     13 C         142.9802  143.7199  162.4539 C.ar    1  UNL1        0.1914
     14 C         142.4214  144.2663  163.7342 C.ar    1  UNL1        0.1384
     15 N         141.0066  144.7624  163.7836 N.ar    1  UNL1       -0.2434
     16 O         144.3949  143.2238  162.4044 O.3     1  UNL1       -0.4668
     17 C         144.9537  142.6774  161.1241 C.3     1  UNL1        0.2527
     18 C         144.0978  142.6271  159.8933 C.3     1  UNL1        0.2526
     19 O         142.6830  143.1232  159.9427 O.3     1  UNL1       -0.4683
     20 C         138.4627  138.4971  164.0641 C.3     1  UNL1        0.0970
     21 C         139.5707  138.1310  165.0065 C.3     1  UNL1        0.1263
     22 C         141.1457  141.3978  167.6707 C.ar    1  UNL1        0.1402
     23 C         142.5261  141.9427  167.4531 C.ar    1  UNL1        0.0370
     24 C         143.3816  141.3987  166.3476 C.ar    1  UNL1        0.0042
     25 C         142.8567  140.3098  165.4596 C.ar    1  UNL1        0.0123
     26 C         143.7121  139.7658  164.3540 C.ar    1  UNL1       -0.0157
     27 C         145.0926  140.3108  164.1365 C.3     1  UNL1        0.0312
     28 C         143.1872  138.6769  163.4660 C.ar    1  UNL1        0.0565
     29 C         141.8067  138.1319  163.6835 C.ar    1  UNL1        0.2607
     30 O         141.2817  137.0430  162.7954 O.2     1  UNL1       -0.2670
     31 N         140.9512  138.6759  164.7890 N.ar    1  UNL1       -0.2940
     32 C         141.4762  139.7649  165.6771 C.ar    1  UNL1        0.0652
     33 C         140.6207  140.3088  166.7826 C.ar    1  UNL1        0.0541
     34 C         140.4904  143.3485  169.2566 C.3     1  UNL1        0.2525
     35 O         140.2902  141.9417  168.7762 O.3     1  UNL1       -0.4714
@<TRIPOS>BOND
     1    34    35    1
     2    35    22    1
     3    22    23   ar
     4    23    24   ar
     5    24    25   ar
     6    25    26   ar
     7    26    27    1
     8    26    28   ar
     9    28    29   ar
    10    29    30    2
    11    29    31   ar
    12    31    21    1
    13    21    20    1
    14    20     1    1
    15     1     2    1
    16     2     3    1
    17     3     4    1
    18     4     7    1
    19     7     9    1
    20     9    10    1
    21    10    11   ar
    22    11    12   ar
    23    12    13   ar
    24    13    14   ar
    25    14    15   ar
    26    13    16    1
    27    16    17    1
    28    17    18    1
    29    18    19    1
    30     4     5    1
    31     5     6    1
    32    31    32   ar
    33    32    33   ar
    34    33    22   ar
    35    32    25   ar
    36     6     1    1
    37    15    10   ar
    38    19    12    1
    39     7     8    1
@<TRIPOS>MOLECULE
*****
 35 39 0 0 0
SMALL
GASTEIGER

@<TRIPOS>ATOM
      1 N         141.9558  138.0149  163.3965 N.3     1  UNL1       -0.2710
      2 C         142.5668  138.5511  164.6571 C.3     1  UNL1        0.0735
      3 C         143.7771  139.4344  164.5872 C.3     1  UNL1        0.0331
      4 C         144.3764  139.7815  163.2566 C.3     1  UNL1        0.0570
      5 C         143.7653  139.2453  161.9960 C.3     1  UNL1        0.0331
      6 C         142.5550  138.3620  162.0660 C.3     1  UNL1        0.0735
      7 N         145.5867  140.6649  163.1867 N.3     1  UNL1       -0.2934
      8 H         145.8907  140.6713  162.2130 H       1  UNL1        0.1236
      9 C         145.4956  142.0976  163.6213 C.3     1  UNL1        0.1152
     10 C         144.2417  142.8804  163.3666 C.ar    1  UNL1        0.0782
     11 C         143.8921  143.3034  161.9706 C.ar    1  UNL1        0.0562
     12 C         142.6382  144.0862  161.7159 C.ar    1  UNL1        0.1752
     13 C         141.7337  144.4459  162.8573 C.ar    1  UNL1        0.1914
     14 C         142.0833  144.0228  164.2533 C.ar    1  UNL1        0.1384
     15 N         143.3373  143.2400  164.5079 N.ar    1  UNL1       -0.2434
     16 O         140.4798  145.2286  162.6026 O.3     1  UNL1       -0.4668
     17 C         140.1302  145.6517  161.2066 C.3     1  UNL1        0.2527
     18 C         141.0346  145.2920  160.0653 C.3     1  UNL1        0.2526
     19 O         142.2886  144.5092  160.3199 O.3     1  UNL1       -0.4683
     20 C         140.7455  137.1315  163.4665 C.3     1  UNL1        0.0970
     21 C         139.4108  137.6514  163.0211 C.3     1  UNL1        0.1263
     22 C         138.9483  140.7169  159.7594 C.ar    1  UNL1        0.1402
     23 C         138.5376  142.1187  160.1004 C.ar    1  UNL1        0.0370
     24 C         138.2811  142.4986  161.5286 C.ar    1  UNL1        0.0042
     25 C         138.4352  141.4768  162.6158 C.ar    1  UNL1        0.0123
     26 C         138.1787  141.8568  164.0440 C.ar    1  UNL1       -0.0157
     27 C         137.7680  143.2586  164.3850 C.3     1  UNL1        0.0312
     28 C         138.3329  140.8350  165.1313 C.ar    1  UNL1        0.0565
     29 C         138.7436  139.4332  164.7903 C.ar    1  UNL1        0.2607
     30 O         138.8977  138.4114  165.8775 O.2     1  UNL1       -0.2670
     31 N         139.0001  139.0532  163.3621 N.ar    1  UNL1       -0.2940
     32 C         138.8459  140.0751  162.2748 C.ar    1  UNL1        0.0652
     33 C         139.1024  139.6951  160.8466 C.ar    1  UNL1        0.0541
     34 C         138.3504  140.9074  157.2382 C.3     1  UNL1        0.2525
     35 O         139.2048  140.3369  158.3312 O.3     1  UNL1       -0.4714
@<TRIPOS>BOND
     1    34    35    1
     2    35    22    1
     3    22    23   ar
     4    23    24   ar
     5    24    25   ar
     6    25    26   ar
     7    26    27    1
     8    26    28   ar
     9    28    29   ar
    10    29    30    2
    11    29    31   ar
    12    31    21    1
    13    21    20    1
    14    20     1    1
    15     1     2    1
    16     2     3    1
    17     3     4    1
    18     4     7    1
    19     7     9    1
    20     9    10    1
    21    10    11   ar
    22    11    12   ar
    23    12    13   ar
    24    13    14   ar
    25    14    15   ar
    26    13    16    1
    27    16    17    1
    28    17    18    1
    29    18    19    1
    30     4     5    1
    31     5     6    1
    32    31    32   ar
    33    32    33   ar
    34    33    22   ar
    35    32    25   ar
    36     6     1    1
    37    15    10   ar
    38    19    12    1
    39     7     8    1
@<TRIPOS>MOLECULE
*****
 35 39 0 0 0
SMALL
GASTEIGER

@<TRIPOS>ATOM
      1 N         141.3361  137.7773  164.2647 N.3     1  UNL1       -0.2710
      2 C         141.4360  137.7900  162.7681 C.3     1  UNL1        0.0735
      3 C         140.2043  137.9909  161.9359 C.3     1  UNL1        0.0331
      4 C         138.8727  138.1790  162.6004 C.3     1  UNL1        0.0570
      5 C         138.7729  138.1664  164.0970 C.3     1  UNL1        0.0331
      6 C         140.0046  137.9655  164.9291 C.3     1  UNL1        0.0735
      7 N         137.6410  138.3799  161.7682 N.3     1  UNL1       -0.2934
      8 H         136.8682  138.5286  162.4171 H       1  UNL1        0.1236
      9 C         137.5861  139.4954  160.7668 C.3     1  UNL1        0.1152
     10 C         137.8857  140.9018  161.1935 C.ar    1  UNL1        0.0782
     11 C         138.8076  141.7543  160.3729 C.ar    1  UNL1        0.0562
     12 C         139.1072  143.1607  160.7997 C.ar    1  UNL1        0.1752
     13 C         138.4849  143.7147  162.0471 C.ar    1  UNL1        0.1914
     14 C         137.5631  142.8622  162.8677 C.ar    1  UNL1        0.1384
     15 N         137.2635  141.4557  162.4409 N.ar    1  UNL1       -0.2434
     16 O         138.7845  145.1212  162.4738 O.3     1  UNL1       -0.4668
     17 C         139.7064  145.9737  161.6532 C.3     1  UNL1        0.2527
     18 C         140.3286  145.4198  160.4059 C.3     1  UNL1        0.2526
     19 O         140.0290  144.0133  159.9790 O.3     1  UNL1       -0.4683
     20 C         142.5679  137.5764  165.0969 C.3     1  UNL1        0.0970
     21 C         143.4480  138.7450  165.4281 C.3     1  UNL1        0.1263
     22 C         140.8289  140.8135  168.4466 C.ar    1  UNL1        0.1402
     23 C         140.3482  142.2110  168.1899 C.ar    1  UNL1        0.0370
     24 C         140.7405  142.9190  166.9270 C.ar    1  UNL1        0.0042
     25 C         141.6135  142.2295  165.9209 C.ar    1  UNL1        0.0123
     26 C         142.0059  142.9375  164.6580 C.ar    1  UNL1       -0.0157
     27 C         141.5252  144.3350  164.4013 C.3     1  UNL1        0.0312
     28 C         142.8789  142.2480  163.6518 C.ar    1  UNL1        0.0565
     29 C         143.3596  140.8504  163.9085 C.ar    1  UNL1        0.2607
     30 O         144.2327  140.1610  162.9024 O.2     1  UNL1       -0.2670
     31 N         142.9673  140.1425  165.1714 N.ar    1  UNL1       -0.2940
     32 C         142.0942  140.8320  166.1776 C.ar    1  UNL1        0.0652
     33 C         141.7019  140.1240  167.4405 C.ar    1  UNL1        0.0541
     34 C         140.7666  140.7103  171.0419 C.3     1  UNL1        0.2525
     35 O         140.4366  140.1056  169.7095 O.3     1  UNL1       -0.4714
@<TRIPOS>BOND
     1    34    35    1
     2    35    22    1
     3    22    23   ar
     4    23    24   ar
     5    24    25   ar
     6    25    26   ar
     7    26    27    1
     8    26    28   ar
     9    28    29   ar
    10    29    30    2
    11    29    31   ar
    12    31    21    1
    13    21    20    1
    14    20     1    1
    15     1     2    1
    16     2     3    1
    17     3     4    1
    18     4     7    1
    19     7     9    1
    20     9    10    1
    21    10    11   ar
    22    11    12   ar
    23    12    13   ar
    24    13    14   ar
    25    14    15   ar
    26    13    16    1
    27    16    17    1
    28    17    18    1
    29    18    19    1
    30     4     5    1
    31     5     6    1
    32    31    32   ar
    33    32    33   ar
    34    33    22   ar
    35    32    25   ar
    36     6     1    1
    37    15    10   ar
    38    19    12    1
    39     7     8    1
