@<TRIPOS>MOLECULE
*****
 41 45 0 0 0
SMALL
GASTEIGER

@<TRIPOS>ATOM
      1 C         143.0488  139.4255  159.5625 C.3     1  UNL1        0.0758
      2 C         143.7440  138.6101  160.6122 C.3     1  UNL1        0.0370
      3 C         142.9448  137.9236  161.6799 C.3     1  UNL1        0.0741
      4 N         141.4505  138.0524  161.6979 N.3     1  UNL1       -0.2688
      5 C         140.7553  138.8678  160.6483 C.3     1  UNL1        0.0741
      6 C         141.5544  139.5543  159.5806 C.3     1  UNL1        0.0370
      7 O         143.3924  138.1293  156.8789 O.2     1  UNL1       -0.2526
      8 C         144.0197  139.4640  157.1530 C.2     1  UNL1        0.3039
      9 N         143.8479  140.1121  158.4948 N.am    1  UNL1       -0.2903
     10 N         144.8189  140.1506  156.0853 N.am    1  UNL1       -0.2641
     11 C         144.9907  139.5025  154.7435 C.3     1  UNL1        0.0974
     12 C         145.7898  140.1891  153.6758 C.3     1  UNL1        0.0488
     13 C         146.4171  141.5238  153.9499 C.3     1  UNL1        0.0957
     14 O         146.8602  141.3139  152.5323 O.3     1  UNL1       -0.3863
     15 C         146.2453  142.1719  155.2917 C.3     1  UNL1        0.0488
     16 C         145.4462  141.4853  156.3594 C.3     1  UNL1        0.0974
     17 H         144.2596  140.9881  158.6747 H       1  UNL1        0.1509
     18 H         146.5197  140.4650  152.2095 H       1  UNL1        0.2102
     19 C         147.1983  142.7856  153.7316 C.3     1  UNL1        0.0533
     20 C         148.6956  142.7653  153.8188 C.ar    1  UNL1       -0.0198
     21 C         149.5090  143.6971  152.9701 C.ar    1  UNL1       -0.0042
     22 C         151.0063  143.6769  153.0573 C.ar    1  UNL1       -0.0003
     23 C         151.6903  142.7248  153.9933 C.ar    1  UNL1       -0.0000
     24 C         150.8769  141.7931  154.8419 C.ar    1  UNL1       -0.0003
     25 C         149.3796  141.8133  154.7547 C.ar    1  UNL1       -0.0042
     26 C         140.6513  137.3658  162.7657 C.3     1  UNL1        0.1007
     27 C         140.3548  138.0753  164.0535 C.ar    1  UNL1        0.0129
     28 C         139.0593  138.0278  164.8082 C.ar    1  UNL1        0.0176
     29 C         139.2055  138.8799  166.0340 C.ar    1  UNL1        0.0799
     30 N         140.5913  139.4541  166.0369 N.ar    1  UNL1       -0.3038
     31 C         141.3016  138.9567  164.8129 C.ar    1  UNL1        0.0772
     32 C         141.1659  140.3655  167.0805 C.ar    1  UNL1        0.0640
     33 C         142.3817  139.9482  167.8535 C.ar    1  UNL1        0.0175
     34 C         142.9563  140.8596  168.8972 C.ar    1  UNL1        0.0053
     35 C         142.3151  142.1883  169.1677 C.ar    1  UNL1        0.0715
     36 C         141.0993  142.6057  168.3947 C.ar    1  UNL1        0.0053
     37 C         140.5247  141.6943  167.3511 C.ar    1  UNL1        0.0175
     38 C         142.8897  143.0997  170.2114 C.3     1  UNL1        0.4186
     39 F         143.4644  144.0110  171.2550 F       1  UNL1       -0.1659
     40 F         141.6214  143.9005  170.2103 F       1  UNL1       -0.1659
     41 F         144.1581  142.2988  170.2124 F       1  UNL1       -0.1659
@<TRIPOS>BOND
     1     7     8    2
     2     8     9   am
     3     9     1    1
     4     1     2    1
     5     2     3    1
     6     3     4    1
     7     4    26    1
     8    26    27    1
     9    27    28   ar
    10    28    29   ar
    11    29    30   ar
    12    30    32    1
    13    32    33   ar
    14    33    34   ar
    15    34    35   ar
    16    35    38    1
    17    38    39    1
    18    38    40    1
    19    38    41    1
    20    35    36   ar
    21    36    37   ar
    22    30    31   ar
    23     4     5    1
    24     5     6    1
    25     8    10   am
    26    10    11    1
    27    11    12    1
    28    12    13    1
    29    13    14    1
    30    13    19    1
    31    19    20    1
    32    20    21   ar
    33    21    22   ar
    34    22    23   ar
    35    23    24   ar
    36    24    25   ar
    37    13    15    1
    38    15    16    1
    39     6     1    1
    40    16    10    1
    41    31    27   ar
    42    25    20   ar
    43    37    32   ar
    44     9    17    1
    45    14    18    1
@<TRIPOS>MOLECULE
*****
 41 45 0 0 0
SMALL
GASTEIGER

@<TRIPOS>ATOM
      1 C         138.8020  139.8160  159.5574 C.3     1  UNL1        0.0758
      2 C         138.9244  141.3067  159.4444 C.3     1  UNL1        0.0370
      3 C         138.4290  142.1861  160.5540 C.3     1  UNL1        0.0741
      4 N         137.8112  141.5749  161.7765 N.3     1  UNL1       -0.2688
      5 C         137.6887  140.0842  161.8895 C.3     1  UNL1        0.0741
      6 C         138.1841  139.2048  160.7799 C.3     1  UNL1        0.0370
      7 O         141.7128  139.1099  159.3887 O.2     1  UNL1       -0.2526
      8 C         140.7528  138.5835  158.3635 C.2     1  UNL1        0.3039
      9 N         139.2974  138.9365  158.4478 N.am    1  UNL1       -0.2903
     10 N         141.2482  137.7040  157.2539 N.am    1  UNL1       -0.2641
     11 C         142.7036  137.3510  157.1696 C.3     1  UNL1        0.0974
     12 C         143.1989  136.4715  156.0601 C.3     1  UNL1        0.0488
     13 C         142.2388  135.9451  155.0348 C.3     1  UNL1        0.0957
     14 O         143.5147  135.3357  154.5340 O.3     1  UNL1       -0.3863
     15 C         140.7835  136.2981  155.1191 C.3     1  UNL1        0.0488
     16 C         140.2881  137.1776  156.2286 C.3     1  UNL1        0.0974
     17 H         138.6673  138.5910  157.7749 H       1  UNL1        0.1509
     18 H         144.2470  135.5958  155.1147 H       1  UNL1        0.2102
     19 C         141.7220  135.2070  153.8356 C.3     1  UNL1        0.0533
     20 C         141.6468  133.7090  153.8518 C.ar    1  UNL1       -0.0198
     21 C         141.4069  132.9840  155.1429 C.ar    1  UNL1       -0.0042
     22 C         141.3318  131.4859  155.1591 C.ar    1  UNL1       -0.0003
     23 C         141.4965  130.7129  153.8841 C.ar    1  UNL1       -0.0000
     24 C         141.7364  131.4379  152.5931 C.ar    1  UNL1       -0.0003
     25 C         141.8116  132.9360  152.5770 C.ar    1  UNL1       -0.0042
     26 C         137.3158  142.4544  162.8861 C.3     1  UNL1        0.1007
     27 C         138.1918  142.7310  164.0719 C.ar    1  UNL1        0.0129
     28 C         138.5408  144.0856  164.6133 C.ar    1  UNL1        0.0176
     29 C         139.4373  143.8934  165.8005 C.ar    1  UNL1        0.0799
     30 N         139.6423  142.4199  165.9928 N.ar    1  UNL1       -0.3038
     31 C         138.8725  141.7015  164.9244 C.ar    1  UNL1        0.0772
     32 C         140.4715  141.7776  167.0651 C.ar    1  UNL1        0.0640
     33 C         141.8624  142.2705  167.3339 C.ar    1  UNL1        0.0175
     34 C         142.6916  141.6283  168.4062 C.ar    1  UNL1        0.0053
     35 C         142.1299  140.4931  169.2097 C.ar    1  UNL1        0.0715
     36 C         140.7389  140.0001  168.9410 C.ar    1  UNL1        0.0053
     37 C         139.9097  140.6424  167.8687 C.ar    1  UNL1        0.0175
     38 C         142.9591  139.8509  170.2821 C.3     1  UNL1        0.4186
     39 F         143.7884  139.2087  171.3544 F       1  UNL1       -0.1659
     40 F         142.0556  138.6537  170.2637 F       1  UNL1       -0.1659
     41 F         143.8627  141.0481  170.3005 F       1  UNL1       -0.1659
@<TRIPOS>BOND
     1     7     8    2
     2     8     9   am
     3     9     1    1
     4     1     2    1
     5     2     3    1
     6     3     4    1
     7     4    26    1
     8    26    27    1
     9    27    28   ar
    10    28    29   ar
    11    29    30   ar
    12    30    32    1
    13    32    33   ar
    14    33    34   ar
    15    34    35   ar
    16    35    38    1
    17    38    39    1
    18    38    40    1
    19    38    41    1
    20    35    36   ar
    21    36    37   ar
    22    30    31   ar
    23     4     5    1
    24     5     6    1
    25     8    10   am
    26    10    11    1
    27    11    12    1
    28    12    13    1
    29    13    14    1
    30    13    19    1
    31    19    20    1
    32    20    21   ar
    33    21    22   ar
    34    22    23   ar
    35    23    24   ar
    36    24    25   ar
    37    13    15    1
    38    15    16    1
    39     6     1    1
    40    16    10    1
    41    31    27   ar
    42    25    20   ar
    43    37    32   ar
    44     9    17    1
    45    14    18    1
@<TRIPOS>MOLECULE
*****
 41 45 0 0 0
SMALL
GASTEIGER

@<TRIPOS>ATOM
      1 C         141.1722  139.0254  159.6813 C.3     1  UNL1        0.0758
      2 C         142.5604  138.7473  159.1858 C.3     1  UNL1        0.0370
      3 C         142.7631  138.0796  157.8581 C.3     1  UNL1        0.0741
      4 N         141.5776  137.6899  157.0257 N.3     1  UNL1       -0.2688
      5 C         140.1894  137.9680  157.5212 C.3     1  UNL1        0.0741
      6 C         139.9867  138.6357  158.8489 C.3     1  UNL1        0.0370
      7 O         140.3565  137.4012  162.0681 O.2     1  UNL1       -0.2526
      8 C         140.5616  138.8811  162.2025 C.2     1  UNL1        0.3039
      9 N         140.9694  139.6931  161.0091 N.am    1  UNL1       -0.2903
     10 N         140.3588  139.5488  163.5303 N.am    1  UNL1       -0.2641
     11 C         139.9510  138.7367  164.7237 C.3     1  UNL1        0.0974
     12 C         139.7482  139.4045  166.0514 C.3     1  UNL1        0.0488
     13 C         139.9533  140.8843  166.1858 C.3     1  UNL1        0.0957
     14 O         139.5705  140.5453  167.5959 O.3     1  UNL1       -0.3863
     15 C         140.3611  141.6964  164.9924 C.3     1  UNL1        0.0488
     16 C         140.5639  141.0286  163.6647 C.3     1  UNL1        0.0974
     17 H         141.1040  140.6644  161.0973 H       1  UNL1        0.1509
     18 H         139.4022  139.5925  167.6651 H       1  UNL1        0.2102
     19 C         140.0254  142.2464  166.8099 C.3     1  UNL1        0.0533
     20 C         140.9732  142.5026  167.9440 C.ar    1  UNL1       -0.0198
     21 C         142.3826  141.9940  167.8730 C.ar    1  UNL1       -0.0042
     22 C         143.3304  142.2502  169.0070 C.ar    1  UNL1       -0.0003
     23 C         142.8688  143.0150  170.2121 C.ar    1  UNL1       -0.0000
     24 C         141.4594  143.5235  170.2830 C.ar    1  UNL1       -0.0003
     25 C         140.5116  143.2673  169.1490 C.ar    1  UNL1       -0.0042
     26 C         141.7804  137.0222  155.6979 C.3     1  UNL1        0.1007
     27 C         141.8340  135.5257  155.6114 C.ar    1  UNL1        0.0129
     28 C         141.0269  134.6667  154.6837 C.ar    1  UNL1        0.0176
     29 C         141.3982  133.2355  154.9363 C.ar    1  UNL1        0.0799
     30 N         142.4348  133.2099  156.0203 N.ar    1  UNL1       -0.3038
     31 C         142.7042  134.6253  156.4375 C.ar    1  UNL1        0.0772
     32 C         143.0875  131.9842  156.5874 C.ar    1  UNL1        0.0640
     33 C         142.5400  130.6256  156.2647 C.ar    1  UNL1        0.0175
     34 C         143.1926  129.3998  156.8318 C.ar    1  UNL1        0.0053
     35 C         144.3928  129.5328  157.7216 C.ar    1  UNL1        0.0715
     36 C         144.9404  130.8914  158.0443 C.ar    1  UNL1        0.0053
     37 C         144.2877  132.1172  157.4772 C.ar    1  UNL1        0.0175
     38 C         145.0454  128.3070  158.2887 C.3     1  UNL1        0.4186
     39 F         145.6982  127.0813  158.8558 F       1  UNL1       -0.1659
     40 F         144.2392  127.4481  157.3601 F       1  UNL1       -0.1659
     41 F         145.8518  129.1660  159.2172 F       1  UNL1       -0.1659
@<TRIPOS>BOND
     1     7     8    2
     2     8     9   am
     3     9     1    1
     4     1     2    1
     5     2     3    1
     6     3     4    1
     7     4    26    1
     8    26    27    1
     9    27    28   ar
    10    28    29   ar
    11    29    30   ar
    12    30    32    1
    13    32    33   ar
    14    33    34   ar
    15    34    35   ar
    16    35    38    1
    17    38    39    1
    18    38    40    1
    19    38    41    1
    20    35    36   ar
    21    36    37   ar
    22    30    31   ar
    23     4     5    1
    24     5     6    1
    25     8    10   am
    26    10    11    1
    27    11    12    1
    28    12    13    1
    29    13    14    1
    30    13    19    1
    31    19    20    1
    32    20    21   ar
    33    21    22   ar
    34    22    23   ar
    35    23    24   ar
    36    24    25   ar
    37    13    15    1
    38    15    16    1
    39     6     1    1
    40    16    10    1
    41    31    27   ar
    42    25    20   ar
    43    37    32   ar
    44     9    17    1
    45    14    18    1
@<TRIPOS>MOLECULE
*****
 41 45 0 0 0
SMALL
GASTEIGER

@<TRIPOS>ATOM
      1 C         139.5172  141.1547  160.2843 C.3     1  UNL1        0.0758
      2 C         139.6535  140.0561  159.2721 C.3     1  UNL1        0.0370
      3 C         139.2890  140.3073  157.8390 C.3     1  UNL1        0.0741
      4 N         138.7881  141.6571  157.4180 N.3     1  UNL1       -0.2688
      5 C         138.6518  142.7557  158.4301 C.3     1  UNL1        0.0741
      6 C         139.0163  142.5045  159.8633 C.3     1  UNL1        0.0370
      7 O         137.3861  140.4392  162.2710 O.2     1  UNL1       -0.2526
      8 C         138.8162  140.5458  162.7108 C.2     1  UNL1        0.3039
      9 N         139.8817  140.9035  161.7175 N.am    1  UNL1       -0.2903
     10 N         139.1807  140.2947  164.1441 N.am    1  UNL1       -0.2641
     11 C         138.1152  139.9369  165.1373 C.3     1  UNL1        0.0974
     12 C         138.4798  139.6858  166.5705 C.3     1  UNL1        0.0488
     13 C         139.9099  139.7924  167.0104 C.3     1  UNL1        0.0957
     14 O         139.2630  139.4277  168.3136 O.3     1  UNL1       -0.3863
     15 C         140.9754  140.1501  166.0171 C.3     1  UNL1        0.0488
     16 C         140.6108  140.4012  164.5839 C.3     1  UNL1        0.0974
     17 H         140.8203  140.9735  162.0063 H       1  UNL1        0.1509
     18 H         138.3077  139.3223  168.1821 H       1  UNL1        0.2102
     19 C         141.1153  139.7723  167.9029 C.3     1  UNL1        0.0533
     20 C         141.5003  141.0017  168.6712 C.ar    1  UNL1       -0.0198
     21 C         142.9152  141.1841  169.1345 C.ar    1  UNL1       -0.0042
     22 C         143.3002  142.4135  169.9029 C.ar    1  UNL1       -0.0003
     23 C         142.2702  143.4605  170.2079 C.ar    1  UNL1       -0.0000
     24 C         140.8553  143.2780  169.7446 C.ar    1  UNL1       -0.0003
     25 C         140.4703  142.0486  168.9763 C.ar    1  UNL1       -0.0042
     26 C         138.4236  141.9083  155.9848 C.3     1  UNL1        0.1007
     27 C         137.0243  141.6496  155.5104 C.ar    1  UNL1        0.0129
     28 C         136.4762  141.9867  154.1554 C.ar    1  UNL1        0.0176
     29 C         135.0406  141.5538  154.1152 C.ar    1  UNL1        0.0799
     30 N         134.7014  140.9491  155.4454 N.ar    1  UNL1       -0.3038
     31 C         135.9274  141.0083  156.3076 C.ar    1  UNL1        0.0772
     32 C         133.3700  140.3844  155.8434 C.ar    1  UNL1        0.0640
     33 C         132.1296  141.2152  155.6995 C.ar    1  UNL1        0.0175
     34 C         130.7982  140.6505  156.0975 C.ar    1  UNL1        0.0053
     35 C         130.7072  139.2549  156.6395 C.ar    1  UNL1        0.0715
     36 C         131.9477  138.4239  156.7835 C.ar    1  UNL1        0.0053
     37 C         133.2791  138.9887  156.3855 C.ar    1  UNL1        0.0175
     38 C         129.3758  138.6902  157.0375 C.3     1  UNL1        0.4186
     39 F         128.0444  138.1255  157.4355 F       1  UNL1       -0.1659
     40 F         129.8915  137.3028  156.7940 F       1  UNL1       -0.1659
     41 F         128.8601  140.0776  157.2810 F       1  UNL1       -0.1659
@<TRIPOS>BOND
     1     7     8    2
     2     8     9   am
     3     9     1    1
     4     1     2    1
     5     2     3    1
     6     3     4    1
     7     4    26    1
     8    26    27    1
     9    27    28   ar
    10    28    29   ar
    11    29    30   ar
    12    30    32    1
    13    32    33   ar
    14    33    34   ar
    15    34    35   ar
    16    35    38    1
    17    38    39    1
    18    38    40    1
    19    38    41    1
    20    35    36   ar
    21    36    37   ar
    22    30    31   ar
    23     4     5    1
    24     5     6    1
    25     8    10   am
    26    10    11    1
    27    11    12    1
    28    12    13    1
    29    13    14    1
    30    13    19    1
    31    19    20    1
    32    20    21   ar
    33    21    22   ar
    34    22    23   ar
    35    23    24   ar
    36    24    25   ar
    37    13    15    1
    38    15    16    1
    39     6     1    1
    40    16    10    1
    41    31    27   ar
    42    25    20   ar
    43    37    32   ar
    44     9    17    1
    45    14    18    1
@<TRIPOS>MOLECULE
*****
 41 45 0 0 0
SMALL
GASTEIGER

@<TRIPOS>ATOM
      1 C         141.4660  139.1641  160.9486 C.3     1  UNL1        0.0758
      2 C         142.5668  138.1801  160.6839 C.3     1  UNL1        0.0370
      3 C         142.9498  137.8450  159.2729 C.3     1  UNL1        0.0741
      4 N         142.2320  138.4937  158.1267 N.3     1  UNL1       -0.2688
      5 C         141.1313  139.4777  158.3914 C.3     1  UNL1        0.0741
      6 C         140.7483  139.8129  159.8023 C.3     1  UNL1        0.0370
      7 O         139.5545  137.4002  162.4435 O.2     1  UNL1       -0.2526
      8 C         140.1272  138.6174  163.1070 C.2     1  UNL1        0.3039
      9 N         141.0830  139.4993  162.3597 N.am    1  UNL1       -0.2903
     10 N         139.7441  138.9526  164.5181 N.am    1  UNL1       -0.2641
     11 C         138.7884  138.0707  165.2655 C.3     1  UNL1        0.0974
     12 C         138.4054  138.4059  166.6764 C.3     1  UNL1        0.0488
     13 C         138.9781  139.6232  167.3400 C.3     1  UNL1        0.0957
     14 O         138.1175  139.1009  168.4520 O.3     1  UNL1       -0.3863
     15 C         139.9339  140.5051  166.5926 C.3     1  UNL1        0.0488
     16 C         140.3169  140.1698  165.1817 C.3     1  UNL1        0.0974
     17 H         141.4589  140.2982  162.7952 H       1  UNL1        0.1509
     18 H         137.6699  138.2909  168.1613 H       1  UNL1        0.2102
     19 C         139.2519  140.6590  168.3898 C.3     1  UNL1        0.0533
     20 C         140.6429  140.8383  168.9219 C.ar    1  UNL1       -0.0198
     21 C         141.3020  142.1843  168.8594 C.ar    1  UNL1       -0.0042
     22 C         142.6930  142.3636  169.3915 C.ar    1  UNL1       -0.0003
     23 C         143.4247  141.1969  169.9860 C.ar    1  UNL1       -0.0000
     24 C         142.7656  139.8510  170.0485 C.ar    1  UNL1       -0.0003
     25 C         141.3746  139.6717  169.5164 C.ar    1  UNL1       -0.0042
     26 C         142.6151  138.1585  156.7156 C.3     1  UNL1        0.1007
     27 C         142.3670  136.7802  156.1784 C.ar    1  UNL1        0.0129
     28 C         141.0932  136.2937  155.5532 C.ar    1  UNL1        0.0176
     29 C         141.2880  134.8592  155.1605 C.ar    1  UNL1        0.0799
     30 N         142.6822  134.4590  155.5430 N.ar    1  UNL1       -0.3038
     31 C         143.3490  135.6463  156.1721 C.ar    1  UNL1        0.0772
     32 C         143.3009  133.1088  155.3332 C.ar    1  UNL1        0.0640
     33 C         144.2804  132.5692  156.3328 C.ar    1  UNL1        0.0175
     34 C         144.8991  131.2189  156.1230 C.ar    1  UNL1        0.0053
     35 C         144.5383  130.4083  154.9137 C.ar    1  UNL1        0.0715
     36 C         143.5587  130.9479  153.9140 C.ar    1  UNL1        0.0053
     37 C         142.9400  132.2982  154.1238 C.ar    1  UNL1        0.0175
     38 C         145.1570  129.0581  154.7039 C.3     1  UNL1        0.4186
     39 F         145.7757  127.7078  154.4942 F       1  UNL1       -0.1659
     40 F         145.0930  129.2595  153.2189 F       1  UNL1       -0.1659
     41 F         145.2210  128.8566  156.1890 F       1  UNL1       -0.1659
@<TRIPOS>BOND
     1     7     8    2
     2     8     9   am
     3     9     1    1
     4     1     2    1
     5     2     3    1
     6     3     4    1
     7     4    26    1
     8    26    27    1
     9    27    28   ar
    10    28    29   ar
    11    29    30   ar
    12    30    32    1
    13    32    33   ar
    14    33    34   ar
    15    34    35   ar
    16    35    38    1
    17    38    39    1
    18    38    40    1
    19    38    41    1
    20    35    36   ar
    21    36    37   ar
    22    30    31   ar
    23     4     5    1
    24     5     6    1
    25     8    10   am
    26    10    11    1
    27    11    12    1
    28    12    13    1
    29    13    14    1
    30    13    19    1
    31    19    20    1
    32    20    21   ar
    33    21    22   ar
    34    22    23   ar
    35    23    24   ar
    36    24    25   ar
    37    13    15    1
    38    15    16    1
    39     6     1    1
    40    16    10    1
    41    31    27   ar
    42    25    20   ar
    43    37    32   ar
    44     9    17    1
    45    14    18    1
@<TRIPOS>MOLECULE
*****
 41 45 0 0 0
SMALL
GASTEIGER

@<TRIPOS>ATOM
      1 C         142.4467  138.4123  159.0518 C.3     1  UNL1        0.0758
      2 C         143.3670  139.5960  159.0111 C.3     1  UNL1        0.0370
      3 C         142.8999  140.9270  159.5210 C.3     1  UNL1        0.0741
      4 N         141.5124  141.0743  160.0717 N.3     1  UNL1       -0.2688
      5 C         140.5921  139.8906  160.1125 C.3     1  UNL1        0.0741
      6 C         141.0592  138.5596  159.6025 C.3     1  UNL1        0.0370
      7 O         141.5417  137.4340  156.3641 O.2     1  UNL1       -0.2526
      8 C         142.4613  136.5920  157.1980 C.2     1  UNL1        0.3039
      9 N         142.9138  137.0811  158.5419 N.am    1  UNL1       -0.2903
     10 N         142.9284  135.2609  156.6880 N.am    1  UNL1       -0.2641
     11 C         142.4760  134.7718  155.3442 C.3     1  UNL1        0.0974
     12 C         142.9431  133.4407  154.8343 C.3     1  UNL1        0.0488
     13 C         143.8627  132.5988  155.6683 C.3     1  UNL1        0.0957
     14 O         143.7113  131.7101  154.4694 O.3     1  UNL1       -0.3863
     15 C         144.3152  133.0879  157.0121 C.3     1  UNL1        0.0488
     16 C         143.8480  134.4190  157.5220 C.3     1  UNL1        0.0974
     17 H         143.5174  136.5285  159.0892 H       1  UNL1        0.1509
     18 H         143.1256  132.1353  153.8236 H       1  UNL1        0.2102
     19 C         144.7297  131.4482  156.0858 C.3     1  UNL1        0.0533
     20 C         144.1453  130.3187  156.8812 C.ar    1  UNL1       -0.0198
     21 C         143.0381  129.4883  156.3029 C.ar    1  UNL1       -0.0042
     22 C         142.4537  128.3587  157.0984 C.ar    1  UNL1       -0.0003
     23 C         142.9767  128.0596  158.4721 C.ar    1  UNL1       -0.0000
     24 C         144.0839  128.8900  159.0503 C.ar    1  UNL1       -0.0003
     25 C         144.6682  130.0196  158.2549 C.ar    1  UNL1       -0.0042
     26 C         141.0453  142.4055  160.5817 C.3     1  UNL1        0.1007
     27 C         140.3534  142.4992  161.9093 C.ar    1  UNL1        0.0129
     28 C         139.1517  143.3415  162.2196 C.ar    1  UNL1        0.0176
     29 C         138.7973  143.1301  163.6617 C.ar    1  UNL1        0.0799
     30 N         139.7801  142.1570  164.2427 N.ar    1  UNL1       -0.3038
     31 C         140.7418  141.7672  163.1596 C.ar    1  UNL1        0.0772
     32 C         139.7980  141.6610  165.6582 C.ar    1  UNL1        0.0640
     33 C         139.2179  140.3181  165.9897 C.ar    1  UNL1        0.0175
     34 C         139.2358  139.8221  167.4052 C.ar    1  UNL1        0.0053
     35 C         139.8338  140.6690  168.4891 C.ar    1  UNL1        0.0715
     36 C         140.4139  142.0120  168.1577 C.ar    1  UNL1        0.0053
     37 C         140.3960  142.5080  166.7422 C.ar    1  UNL1        0.0175
     38 C         139.8517  140.1730  169.9046 C.3     1  UNL1        0.4186
     39 F         139.8695  139.6769  171.3201 F       1  UNL1       -0.1659
     40 F         141.3460  140.0573  169.8452 F       1  UNL1       -0.1659
     41 F         138.3573  140.2886  169.9641 F       1  UNL1       -0.1659
@<TRIPOS>BOND
     1     7     8    2
     2     8     9   am
     3     9     1    1
     4     1     2    1
     5     2     3    1
     6     3     4    1
     7     4    26    1
     8    26    27    1
     9    27    28   ar
    10    28    29   ar
    11    29    30   ar
    12    30    32    1
    13    32    33   ar
    14    33    34   ar
    15    34    35   ar
    16    35    38    1
    17    38    39    1
    18    38    40    1
    19    38    41    1
    20    35    36   ar
    21    36    37   ar
    22    30    31   ar
    23     4     5    1
    24     5     6    1
    25     8    10   am
    26    10    11    1
    27    11    12    1
    28    12    13    1
    29    13    14    1
    30    13    19    1
    31    19    20    1
    32    20    21   ar
    33    21    22   ar
    34    22    23   ar
    35    23    24   ar
    36    24    25   ar
    37    13    15    1
    38    15    16    1
    39     6     1    1
    40    16    10    1
    41    31    27   ar
    42    25    20   ar
    43    37    32   ar
    44     9    17    1
    45    14    18    1
@<TRIPOS>MOLECULE
*****
 41 45 0 0 0
SMALL
GASTEIGER

@<TRIPOS>ATOM
      1 C         139.5237  141.4719  159.3981 C.3     1  UNL1        0.0758
      2 C         139.7972  140.3739  158.4134 C.3     1  UNL1        0.0370
      3 C         139.1368  140.3926  157.0668 C.3     1  UNL1        0.0741
      4 N         138.2030  141.5092  156.7048 N.3     1  UNL1       -0.2688
      5 C         137.9295  142.6072  157.6895 C.3     1  UNL1        0.0741
      6 C         138.5899  142.5885  159.0361 C.3     1  UNL1        0.0370
      7 O         141.5577  143.5623  160.1005 O.2     1  UNL1       -0.2526
      8 C         141.2011  142.4984  161.0960 C.2     1  UNL1        0.3039
      9 N         140.1841  141.4533  160.7448 N.am    1  UNL1       -0.2903
     10 N         141.8615  142.4798  162.4427 N.am    1  UNL1       -0.2641
     11 C         142.8784  143.5250  162.7939 C.3     1  UNL1        0.0974
     12 C         143.5388  143.5063  164.1405 C.3     1  UNL1        0.0488
     13 C         143.1821  142.4425  165.1360 C.3     1  UNL1        0.0957
     14 O         144.1978  143.2109  165.9285 O.3     1  UNL1       -0.3863
     15 C         142.1652  141.3973  164.7849 C.3     1  UNL1        0.0488
     16 C         141.5048  141.4160  163.4382 C.3     1  UNL1        0.0974
     17 H         139.9501  140.7550  161.3982 H       1  UNL1        0.1509
     18 H         144.5283  143.9525  165.3978 H       1  UNL1        0.2102
     19 C         143.1783  141.6456  166.4068 C.3     1  UNL1        0.0533
     20 C         142.5127  142.1940  167.6341 C.ar    1  UNL1       -0.0198
     21 C         141.0712  142.6059  167.5850 C.ar    1  UNL1       -0.0042
     22 C         140.4057  143.1543  168.8123 C.ar    1  UNL1       -0.0003
     23 C         141.1817  143.2908  170.0887 C.ar    1  UNL1       -0.0000
     24 C         142.6231  142.8789  170.1378 C.ar    1  UNL1       -0.0003
     25 C         143.2887  142.3305  168.9105 C.ar    1  UNL1       -0.0042
     26 C         137.5426  141.5279  155.3581 C.3     1  UNL1        0.1007
     27 C         136.0661  141.2896  155.2434 C.ar    1  UNL1        0.0129
     28 C         135.2022  141.6558  154.0731 C.ar    1  UNL1        0.0176
     29 C         133.7964  141.2359  154.3853 C.ar    1  UNL1        0.0799
     30 N         133.7915  140.6101  155.7486 N.ar    1  UNL1       -0.3038
     31 C         135.1942  140.6433  156.2789 C.ar    1  UNL1        0.0772
     32 C         132.5941  140.0495  156.4571 C.ar    1  UNL1        0.0640
     33 C         132.7687  138.9785  157.4926 C.ar    1  UNL1        0.0175
     34 C         131.5713  138.4179  158.2011 C.ar    1  UNL1        0.0053
     35 C         130.1993  138.9284  157.8741 C.ar    1  UNL1        0.0715
     36 C         130.0247  139.9995  156.8386 C.ar    1  UNL1        0.0053
     37 C         131.2221  140.5601  156.1301 C.ar    1  UNL1        0.0175
     38 C         129.0019  138.3679  158.5826 C.3     1  UNL1        0.4186
     39 F         127.8045  137.8072  159.2911 F       1  UNL1       -0.1659
     40 F         128.8233  139.6679  159.3093 F       1  UNL1       -0.1659
     41 F         129.1805  137.0678  157.8559 F       1  UNL1       -0.1659
@<TRIPOS>BOND
     1     7     8    2
     2     8     9   am
     3     9     1    1
     4     1     2    1
     5     2     3    1
     6     3     4    1
     7     4    26    1
     8    26    27    1
     9    27    28   ar
    10    28    29   ar
    11    29    30   ar
    12    30    32    1
    13    32    33   ar
    14    33    34   ar
    15    34    35   ar
    16    35    38    1
    17    38    39    1
    18    38    40    1
    19    38    41    1
    20    35    36   ar
    21    36    37   ar
    22    30    31   ar
    23     4     5    1
    24     5     6    1
    25     8    10   am
    26    10    11    1
    27    11    12    1
    28    12    13    1
    29    13    14    1
    30    13    19    1
    31    19    20    1
    32    20    21   ar
    33    21    22   ar
    34    22    23   ar
    35    23    24   ar
    36    24    25   ar
    37    13    15    1
    38    15    16    1
    39     6     1    1
    40    16    10    1
    41    31    27   ar
    42    25    20   ar
    43    37    32   ar
    44     9    17    1
    45    14    18    1
@<TRIPOS>MOLECULE
*****
 41 45 0 0 0
SMALL
GASTEIGER

@<TRIPOS>ATOM
      1 C         139.8964  139.9327  159.5106 C.3     1  UNL1        0.0758
      2 C         138.7368  139.5470  160.3804 C.3     1  UNL1        0.0370
      3 C         138.1040  140.5654  161.2817 C.3     1  UNL1        0.0741
      4 N         138.6308  141.9695  161.3132 N.3     1  UNL1       -0.2688
      5 C         139.7903  142.3552  160.4434 C.3     1  UNL1        0.0741
      6 C         140.4231  141.3368  159.5421 C.3     1  UNL1        0.0370
      7 O         138.5454  139.1513  156.9485 O.2     1  UNL1       -0.2526
      8 C         139.8537  138.5236  157.3282 C.2     1  UNL1        0.3039
      9 N         140.5292  138.9143  158.6092 N.am    1  UNL1       -0.2903
     10 N         140.4866  137.5052  156.4269 N.am    1  UNL1       -0.2641
     11 C         139.8111  137.1145  155.1458 C.3     1  UNL1        0.0974
     12 C         140.4440  136.0961  154.2446 C.3     1  UNL1        0.0488
     13 C         141.7523  135.4684  154.6243 C.3     1  UNL1        0.0957
     14 O         141.5009  134.7763  153.3175 O.3     1  UNL1       -0.3863
     15 C         142.4278  135.8591  155.9053 C.3     1  UNL1        0.0488
     16 C         141.7950  136.8775  156.8066 C.3     1  UNL1        0.0974
     17 H         141.3879  138.5023  158.8585 H       1  UNL1        0.1509
     18 H         140.6637  135.0901  152.9412 H       1  UNL1        0.2102
     19 C         142.9733  134.6003  154.5501 C.3     1  UNL1        0.0533
     20 C         142.9852  133.2629  155.2292 C.ar    1  UNL1       -0.0198
     21 C         144.1440  132.8734  156.0984 C.ar    1  UNL1       -0.0042
     22 C         144.1558  131.5359  156.7775 C.ar    1  UNL1       -0.0003
     23 C         143.0088  130.5881  156.5874 C.ar    1  UNL1       -0.0000
     24 C         141.8501  130.9776  155.7181 C.ar    1  UNL1       -0.0003
     25 C         141.8383  132.3150  155.0391 C.ar    1  UNL1       -0.0042
     26 C         137.9979  142.9879  162.2146 C.3     1  UNL1        0.1007
     27 C         138.4992  143.1624  163.6175 C.ar    1  UNL1        0.0129
     28 C         138.2693  144.3580  164.4936 C.ar    1  UNL1        0.0176
     29 C         138.9463  144.1065  165.8082 C.ar    1  UNL1        0.0799
     30 N         139.5947  142.7553  165.7447 N.ar    1  UNL1       -0.3038
     31 C         139.3183  142.1718  164.3907 C.ar    1  UNL1        0.0772
     32 C         140.3813  142.1023  166.8423 C.ar    1  UNL1        0.0640
     33 C         140.7962  142.8987  168.0437 C.ar    1  UNL1        0.0175
     34 C         141.5828  142.2457  169.1413 C.ar    1  UNL1        0.0053
     35 C         141.9545  140.7963  169.0376 C.ar    1  UNL1        0.0715
     36 C         141.5396  139.9998  167.8362 C.ar    1  UNL1        0.0053
     37 C         140.7530  140.6528  166.7385 C.ar    1  UNL1        0.0175
     38 C         142.7411  140.1433  170.1352 C.3     1  UNL1        0.4186
     39 F         143.5276  139.4902  171.2329 F       1  UNL1       -0.1659
     40 F         143.6164  141.3576  170.2303 F       1  UNL1       -0.1659
     41 F         141.8657  138.9289  170.0401 F       1  UNL1       -0.1659
@<TRIPOS>BOND
     1     7     8    2
     2     8     9   am
     3     9     1    1
     4     1     2    1
     5     2     3    1
     6     3     4    1
     7     4    26    1
     8    26    27    1
     9    27    28   ar
    10    28    29   ar
    11    29    30   ar
    12    30    32    1
    13    32    33   ar
    14    33    34   ar
    15    34    35   ar
    16    35    38    1
    17    38    39    1
    18    38    40    1
    19    38    41    1
    20    35    36   ar
    21    36    37   ar
    22    30    31   ar
    23     4     5    1
    24     5     6    1
    25     8    10   am
    26    10    11    1
    27    11    12    1
    28    12    13    1
    29    13    14    1
    30    13    19    1
    31    19    20    1
    32    20    21   ar
    33    21    22   ar
    34    22    23   ar
    35    23    24   ar
    36    24    25   ar
    37    13    15    1
    38    15    16    1
    39     6     1    1
    40    16    10    1
    41    31    27   ar
    42    25    20   ar
    43    37    32   ar
    44     9    17    1
    45    14    18    1
@<TRIPOS>MOLECULE
*****
 41 45 0 0 0
SMALL
GASTEIGER

@<TRIPOS>ATOM
      1 C         142.5403  139.0380  159.2690 C.3     1  UNL1        0.0758
      2 C         143.7546  139.7793  159.7442 C.3     1  UNL1        0.0370
      3 C         143.6063  141.1233  160.3936 C.3     1  UNL1        0.0741
      4 N         142.2438  141.7259  160.5677 N.3     1  UNL1       -0.2688
      5 C         141.0295  140.9845  160.0925 C.3     1  UNL1        0.0741
      6 C         141.1778  139.6406  159.4432 C.3     1  UNL1        0.0370
      7 O         142.3802  138.7885  156.2837 O.2     1  UNL1       -0.2526
      8 C         142.6085  137.5692  157.1270 C.2     1  UNL1        0.3039
      9 N         142.6885  137.6939  158.6197 N.am    1  UNL1       -0.2903
     10 N         142.7567  136.2251  156.4777 N.am    1  UNL1       -0.2641
     11 C         142.6767  136.1004  154.9850 C.3     1  UNL1        0.0974
     12 C         142.8249  134.7564  154.3358 C.3     1  UNL1        0.0488
     13 C         143.0532  133.5371  155.1791 C.3     1  UNL1        0.0957
     14 O         143.0523  132.9138  153.8148 O.3     1  UNL1       -0.3863
     15 C         143.1332  133.6618  156.6717 C.3     1  UNL1        0.0488
     16 C         142.9850  135.0058  157.3210 C.3     1  UNL1        0.0974
     17 H         142.8384  136.8936  159.1732 H       1  UNL1        0.1509
     18 H         142.9109  133.6013  153.1453 H       1  UNL1        0.2102
     19 C         143.2812  132.1013  155.5485 C.3     1  UNL1        0.0533
     20 C         142.1846  131.0952  155.3605 C.ar    1  UNL1       -0.0198
     21 C         142.4631  129.6354  155.5646 C.ar    1  UNL1       -0.0042
     22 C         141.3665  128.6293  155.3766 C.ar    1  UNL1       -0.0003
     23 C         139.9916  129.0830  154.9845 C.ar    1  UNL1       -0.0000
     24 C         139.7132  130.5427  154.7804 C.ar    1  UNL1       -0.0003
     25 C         140.8097  131.5488  154.9684 C.ar    1  UNL1       -0.0042
     26 C         142.0955  143.0700  161.2171 C.3     1  UNL1        0.1007
     27 C         141.3934  143.1919  162.5370 C.ar    1  UNL1        0.0129
     28 C         140.5135  144.3284  162.9658 C.ar    1  UNL1        0.0176
     29 C         140.0242  144.0377  164.3536 C.ar    1  UNL1        0.0799
     30 N         140.6017  142.7214  164.7825 N.ar    1  UNL1       -0.3038
     31 C         141.4479  142.1987  163.6597 C.ar    1  UNL1        0.0772
     32 C         140.3731  142.0463  166.1024 C.ar    1  UNL1        0.0640
     33 C         139.6478  140.7346  166.1583 C.ar    1  UNL1        0.0175
     34 C         139.4192  140.0596  167.4781 C.ar    1  UNL1        0.0053
     35 C         139.9160  140.6963  168.7421 C.ar    1  UNL1        0.0715
     36 C         140.6414  142.0080  168.6863 C.ar    1  UNL1        0.0053
     37 C         140.8699  142.6831  167.3664 C.ar    1  UNL1        0.0175
     38 C         139.6874  140.0213  170.0620 C.3     1  UNL1        0.4186
     39 F         139.4587  139.3462  171.3818 F       1  UNL1       -0.1659
     40 F         141.1594  139.7595  170.1830 F       1  UNL1       -0.1659
     41 F         138.2153  140.2830  169.9409 F       1  UNL1       -0.1659
@<TRIPOS>BOND
     1     7     8    2
     2     8     9   am
     3     9     1    1
     4     1     2    1
     5     2     3    1
     6     3     4    1
     7     4    26    1
     8    26    27    1
     9    27    28   ar
    10    28    29   ar
    11    29    30   ar
    12    30    32    1
    13    32    33   ar
    14    33    34   ar
    15    34    35   ar
    16    35    38    1
    17    38    39    1
    18    38    40    1
    19    38    41    1
    20    35    36   ar
    21    36    37   ar
    22    30    31   ar
    23     4     5    1
    24     5     6    1
    25     8    10   am
    26    10    11    1
    27    11    12    1
    28    12    13    1
    29    13    14    1
    30    13    19    1
    31    19    20    1
    32    20    21   ar
    33    21    22   ar
    34    22    23   ar
    35    23    24   ar
    36    24    25   ar
    37    13    15    1
    38    15    16    1
    39     6     1    1
    40    16    10    1
    41    31    27   ar
    42    25    20   ar
    43    37    32   ar
    44     9    17    1
    45    14    18    1
