@<TRIPOS>MOLECULE
*****
 305 314 0 0 0
SMALL
GASTEIGER

@<TRIPOS>ATOM
      1 C         133.0650  141.0362  159.0323 C.3     9  UNK9        0.1461
      2 N         133.3077  141.9379  160.2062 N.am    9  UNK9       -0.2970
      3 C         133.7296  142.7428  161.3996 C.2     9  UNK9        0.2428
      4 O         132.6338  143.7193  161.7084 O.2     9  UNK9       -0.2732
      5 C         134.3230  143.4358  162.5902 C.3     9  UNK9        0.1757
      6 N         135.0769  144.0042  163.7558 N.am    9  UNK9       -0.2953
      7 C         135.9771  144.4372  164.8748 C.2     9  UNK9        0.2407
      8 O         134.8217  145.3688  165.0916 O.2     9  UNK9       -0.2733
      9 C         137.0070  144.7268  165.9262 C.3     9  UNK9        0.1491
     10 N         138.1472  144.8677  166.8906 N.am    9  UNK9       -0.2970
     11 C         139.3767  144.8572  167.7498 C.2     9  UNK9        0.2416
     12 O         138.8910  145.9650  168.6370 O.2     9  UNK9       -0.2733
     13 C         140.6724  144.6955  168.4881 C.3     9  UNK9        0.1603
     14 C         142.0102  144.3855  169.0914 C.3     2  UNK2        0.0976
     15 S         143.3654  143.9332  169.5488 S.3     2  UNK2       -0.0798
     16 S         144.7124  143.3469  169.8515 S.3     2  UNK2       -0.0798
     17 C         146.0263  142.6376  169.9940 C.3     2  UNK2        0.0976
     18 C         147.2827  141.8183  169.9736 C.3     2  UNK2        0.1603
     19 C         148.4581  140.9044  169.7908 C.2     2  UNK2        0.2416
     20 O         149.2120  141.4728  170.9565 O.2     2  UNK2       -0.2733
     21 N         149.5305  139.9130  169.4488 N.am    3  GLN3       -0.2970
     22 CA        150.4802  138.8626  168.9542 C.3     3  GLN3        0.1491
     23 C         151.2892  137.7726  168.3160 C.2     3  GLN3        0.2406
     24 O         152.4294  137.9134  169.2803 O.2     3  GLN3       -0.2733
     25 N         151.9427  136.6633  167.5462 N.am    4  LYS4       -0.2970
     26 CA        152.4283  135.5555  166.6591 C.3     4  LYS4        0.1486
     27 C         152.7371  134.4697  165.6713 C.2     4  LYS4        0.2406
     28 O         154.0749  134.1598  166.2747 O.2     4  LYS4       -0.2733
     29 N         152.8633  133.4263  164.6011 N.am    5  PHE5       -0.2967
     30 CA        152.8045  132.4446  163.4685 C.3     5  PHE5        0.1530
     31 C         152.5618  131.5429  162.2945 C.2     5  PHE5        0.2410
     32 O         153.8758  130.8335  162.4371 O.2     5  PHE5       -0.2733
     33 N         152.1398  130.7380  161.1011 N.am    6  LEU6       -0.2970
     34 CA        151.5465  130.0450  159.9106 C.3     6  LEU6        0.1486
     35 C         150.7926  129.4766  158.7450 C.2     6  LEU6        0.2406
     36 O         151.8650  128.4852  158.4030 O.2     6  LEU6       -0.2733
     37 N         149.8923  129.0436  157.6260 N.am    7  ALA7       -0.2970
     38 CA        148.8625  128.7540  156.5745 C.3     7  ALA7        0.1489
     39 CB        149.6716  127.6639  155.9363 C.3     7  ALA7        0.0312
     40 C         147.7223  128.6131  155.6102 C.2     7  ALA7        0.2438
     41 O         148.3757  127.5038  154.8404 O.2     7  ALA7       -0.2731
     42 N         146.4928  128.6236  154.7509 N.am    8  PRO8       -0.2717
     43 CD        147.2719  127.5281  154.0854 C.3     8  PRO8        0.0939
     44 CG        146.4576  127.0128  152.9359 C.3     8  PRO8        0.0237
     45 CB        145.1753  127.7898  152.8909 C.3     8  PRO8        0.0310
     46 CA        145.1971  128.7853  154.0127 C.3     8  PRO8        0.1518
     47 C         143.8592  129.0952  153.4093 C.2     8  PRO8        0.2409
     48 O         143.9854  128.0518  152.3392 O.2     8  PRO8       -0.2733
     49 N         142.5042  129.5476  152.9520 N.am    9  UNK9       -0.2963
     50 C         141.1571  130.1339  152.6493 C.3     9  UNK9        0.1603
     51 C         139.8431  130.8433  152.5068 C.3     9  UNK9        0.0976
     52 S         138.5867  131.6625  152.5271 S.3     9  UNK9       -0.0798
     53 S         137.4113  132.5763  152.7099 S.3     9  UNK9       -0.0800
     54 C         136.3389  133.5677  153.0519 C.3     9  UNK9        0.0926
     55 C         135.3893  134.6182  153.5466 C.3     9  UNK9        0.1012
     56 N         134.5803  135.7082  154.1848 N.am    9  UNK9       -0.3278
     57 C         133.9268  136.8175  154.9546 C.2     9  UNK9        0.0791
     58 O         132.6974  136.8281  154.0953 O.2     9  UNK9       -0.3126
     59 C         133.4412  137.9254  155.8417 C.2     9  UNK9       -0.1508
     60 N         133.1324  139.0111  156.8295 N.am    9  UNK9       -0.4552
     61 C         133.0062  140.0545  157.8997 C.2     9  UNK9        0.2124
     62 O         131.6512  140.5069  157.4424 O.2     9  UNK9       -0.2759
     63 C         134.0562  135.2694  153.3258 C.2     9  UNK9       -0.0485
     64 O         133.6924  134.4309  152.1363 O.co2   9  UNK9       -0.8650
     65 N         132.7883  136.0708  153.3182 N.am    9  UNK9       -0.3457
     66 C         131.6263  136.9968  153.5240 C.3     9  UNK9        0.0884
     67 C         130.6076  138.0176  153.9368 C.2     9  UNK9       -0.0493
     68 O         129.6256  137.6718  152.8569 O.co2   9  UNK9       -0.8650
     69 N         129.7650  139.1003  154.5431 N.am    9  UNK9       -0.3421
     70 C         129.1256  140.2102  155.3236 C.3     9  UNK9        0.1455
     71 C         128.7097  141.3117  156.2530 C.2     9  UNK9        0.2405
     72 O         127.3875  141.5565  155.5884 O.2     9  UNK9       -0.2733
     73 N         128.5310  142.3692  157.3016 N.am    9  UNK9       -0.2967
     74 C         128.5951  143.3489  158.4357 C.3     9  UNK9        0.1530
     75 C         128.8999  144.2192  159.6188 C.2     9  UNK9        0.2410
     76 O         127.6117  144.9853  159.5576 O.2     9  UNK9       -0.2733
     77 N         129.4356  144.9522  160.8128 N.am    9  UNK9       -0.2963
     78 C         130.1850  145.5242  161.9795 C.3     9  UNK9        0.1603
     79 C         131.1241  145.9170  163.0813 C.3     9  UNK9        0.0976
     80 S         132.2226  146.1179  164.0827 S.3     9  UNK9       -0.0798
     81 S         133.4453  146.1203  164.9516 S.3     9  UNK9       -0.0798
     82 C         134.7528  145.9244  165.6602 C.3     9  UNK9        0.0976
     83 C         136.1032  145.5362  166.1854 C.3     9  UNK9        0.1603
     84 N         137.9930  143.4608  165.2179 N.am    9  UNK9       -0.2963
     85 C         139.3381  142.8622  165.5056 C.2     9  UNK9        0.2407
     86 O         139.6116  143.7486  166.6843 O.2     9  UNK9       -0.2733
     87 C         140.6401  142.1246  165.6082 C.3     9  UNK9        0.1486
     88 N         141.8671  141.2661  165.5234 N.am    9  UNK9       -0.2970
     89 C         142.9890  140.3078  165.2532 C.2     9  UNK9        0.2406
     90 O         143.8355  140.7932  166.3924 O.2     9  UNK9       -0.2733
     91 C         143.9780  139.2732  164.8042 C.3     9  UNK9        0.1487
     92 N         144.8099  138.1880  164.1875 N.am    9  UNK9       -0.2970
     93 C         145.4641  137.0788  163.4183 C.2     9  UNK9        0.2406
     94 O         146.6989  137.0576  164.2695 O.2     9  UNK9       -0.2733
     95 C         145.9245  135.9729  162.5155 C.3     9  UNK9        0.1491
     96 N         146.1797  134.8976  161.5014 N.am    9  UNK9       -0.2969
     97 C         146.2237  133.8792  160.4008 C.2     9  UNK9        0.2432
     98 O         147.5777  133.3560  160.7786 O.2     9  UNK9       -0.2732
     99 C         146.0552  132.9431  159.2411 C.3     9  UNK9        0.1782
    100 N         145.6782  132.1120  158.0505 N.am    9  UNK9       -0.2950
    101 C         145.1023  131.4066  156.8586 C.2    10  ASP10       0.2413
    102 O         146.3533  130.5797  156.8259 O.2    10  ASP10      -0.2733
    103 CA        144.3414  130.8442  155.6946 C.3    10  ASP10       0.1599
    104 N         143.4145  130.4386  154.5872 N.am   10  ASP10      -0.2965
    105 C         142.3443  130.1999  153.5637 C.2     9  UNK9        0.2416
    106 O         143.3414  129.1690  153.1245 O.2     9  UNK9       -0.2733
    107 C         137.4530  144.9685  166.5107 C.2     9  UNK9        0.2416
    108 O         137.6981  145.8689  167.6851 O.2     9  UNK9       -0.2733
    109 N         138.7587  144.2393  166.6254 N.am    9  UNK9       -0.2963
    110 H         132.4453  142.4035  160.1127 H       9  UNK9        0.1499
    111 H         134.3730  144.6549  163.9803 H       9  UNK9        0.1499
    112 H         137.7183  145.5958  167.3958 H       9  UNK9        0.1499
    113 H         150.1214  140.1973  170.1832 H       3  GLN3        0.1499
    114 H         152.7496  136.6564  168.1101 H       4  LYS4        0.1499
    115 H         153.7526  133.1294  164.9013 H       5  PHE5        0.1499
    116 H         152.9644  130.2003  161.0878 H       6  LEU6        0.1499
    117 H         150.5156  128.3541  157.3013 H       7  ALA7        0.1499
    118 H         142.4656  128.9032  152.2087 H       9  UNK9        0.1499
    119 H         133.8319  135.6158  153.5519 H       9  UNK9        0.1471
    120 H         132.2543  139.2145  156.4335 H       9  UNK9        0.1117
    121 H         132.4004  135.6148  152.5366 H       9  UNK9        0.1457
    122 H         129.0214  139.0008  153.9057 H       9  UNK9        0.1458
    123 H         127.6422  142.6543  156.9888 H       9  UNK9        0.1499
    124 H         128.6531  145.5412  160.9131 H       9  UNK9        0.1499
    125 H         137.6005  143.0082  164.4368 H       9  UNK9        0.1499
    126 H         142.3071  141.6835  166.2990 H       9  UNK9        0.1499
    127 H         145.5530  138.2883  164.8254 H       9  UNK9        0.1499
    128 H         147.0639  134.6590  161.8627 H       9  UNK9        0.1499
    129 H         146.5108  131.5866  158.0564 H       9  UNK9        0.1499
    130 H         144.0139  129.7409  154.2364 H      10  ASP10       0.1499
    131 H         138.9362  143.5314  165.9645 H       9  UNK9        0.1499
    132 C         129.1273  146.5243  162.3415 C.2     9  UNK9        0.2416
    133 O         128.3750  146.3865  163.6319 O.2     9  UNK9       -0.2733
    134 N         128.8218  147.6622  161.4131 N.am    9  UNK9       -0.2970
    135 H         129.3156  147.7527  160.5662 H       9  UNK9        0.1499
    136 C         127.7640  148.6622  161.7752 C.3     9  UNK9        0.1486
    137 C         127.9471  149.5476  162.9721 C.2     9  UNK9        0.2406
    138 O         127.0472  150.7306  163.1744 O.2     9  UNK9       -0.2733
    139 N         129.0299  149.2501  163.9665 N.am    9  UNK9       -0.2970
    140 H         129.6205  148.4737  163.8337 H       9  UNK9        0.1499
    141 C         129.2129  150.1355  165.1634 C.3     9  UNK9        0.1486
    142 C         128.8786  151.5951  165.0747 C.2     9  UNK9        0.2406
    143 O         129.3237  152.3957  163.8868 O.2     9  UNK9       -0.2733
    144 N         128.0991  152.2541  166.1738 N.am    9  UNK9       -0.2970
    145 H         127.8069  151.7286  166.9534 H       9  UNK9        0.1499
    146 C         127.7647  153.7137  166.0851 C.3     9  UNK9        0.1486
    147 C         128.0877  154.4827  164.8384 C.2     9  UNK9        0.2406
    148 O         126.7697  154.9053  164.2603 O.2     9  UNK9       -0.2733
    149 N         129.5168  154.6773  164.4263 N.am    9  UNK9       -0.2970
    150 H         130.2428  154.3003  164.9742 H       9  UNK9        0.1499
    151 C         129.8398  155.4463  163.1796 C.3     9  UNK9        0.1486
    152 C         131.1854  155.2971  162.5338 C.2     9  UNK9        0.2406
    153 O         131.7013  156.3683  161.6193 O.2     9  UNK9       -0.2733
    154 N         132.0151  154.0766  162.8024 N.am    9  UNK9       -0.2967
    155 H         131.6765  153.3735  163.4026 H       9  UNK9        0.1499
    156 C         133.3607  153.9274  162.1565 C.3     9  UNK9        0.1528
    157 C         134.0332  152.5870  162.1256 C.2     9  UNK9        0.2376
    158 N         134.5030  152.3927  160.7144 N.am    9  UNK9       -0.3275
    159 O         134.2876  151.5248  163.1537 O.2     9  UNK9       -0.2735
    160 H         134.3360  153.0899  160.0396 H       9  UNK9        0.1450
    161 H         134.9782  151.5680  160.4629 H       9  UNK9        0.1450
    162 C         134.0337  155.1186  161.5417 C.3     9  UNK9        0.0569
    163 C         135.3779  155.5605  162.0394 C.2     9  UNK9        0.0002
    164 C         135.6914  156.0370  163.4268 C.2     9  UNK9        0.0943
    165 N         137.1519  156.3744  163.4820 N.2     9  UNK9       -0.2482
    166 C         137.7411  156.1065  162.1289 C.2     9  UNK9        0.0631
    167 C         139.1343  156.2556  161.5934 C.3     9  UNK9        0.0717
    168 C         139.4312  155.9017  160.1663 C.2     9  UNK9       -0.0198
    169 C         138.3348  155.3987  159.2747 C.2     9  UNK9       -0.0042
    170 C         136.9415  155.2495  159.8102 C.2     9  UNK9        0.0006
    171 C         136.6447  155.6035  161.2373 C.2     9  UNK9        0.0115
    172 C         128.8172  156.3645  162.5787 C.3     9  UNK9        0.0290
    173 C         128.1460  155.9977  161.2884 C.3     9  UNK9        0.0021
    174 C         126.7176  155.5397  161.2896 C.3     9  UNK9        0.0001
    175 C         128.9031  156.0890  159.9967 C.3     9  UNK9        0.0001
    176 C         127.1073  154.4042  167.2431 C.3     9  UNK9        0.0290
    177 C         127.3078  155.8763  167.4506 C.3     9  UNK9        0.0036
    178 C         128.3879  156.3638  168.3703 C.3     9  UNK9        0.0169
    179 C         129.5342  155.4635  168.7246 C.3     9  UNK9        0.0651
    180 N         129.3434  153.9757  168.7363 N.3     9  UNK9       -0.3211
    181 H         128.6916  153.7223  169.4788 H       9  UNK9        0.1189
    182 H         130.2406  153.5192  168.9011 H       9  UNK9        0.1189
    183 C         129.7302  149.5614  166.4490 C.3     9  UNK9        0.0290
    184 C         129.5003  150.2878  167.7411 C.3     9  UNK9        0.0036
    185 C         128.7039  149.6396  168.8345 C.3     9  UNK9        0.0169
    186 C         128.8117  148.1614  169.0656 C.3     9  UNK9        0.0651
    187 N         130.0890  147.4433  168.7448 N.3     9  UNK9       -0.3211
    188 H         130.2509  147.4709  167.7381 H       9  UNK9        0.1189
    189 H         130.0198  146.4730  169.0516 H       9  UNK9        0.1189
    190 C         126.5231  148.7769  160.9402 C.3     9  UNK9        0.0290
    191 C         126.4755  148.1512  159.5778 C.3     9  UNK9        0.0036
    192 C         127.6983  148.1517  158.7092 C.3     9  UNK9        0.0169
    193 C         128.8178  147.1934  158.9893 C.3     9  UNK9        0.0651
    194 N         129.7537  146.7909  157.8884 N.3     9  UNK9       -0.3211
    195 H         129.2426  146.2559  157.1863 H       9  UNK9        0.1189
    196 H         130.5044  146.2174  158.2730 H       9  UNK9        0.1189
    197 N         147.8761  142.5113  171.1642 N.am    2  UNK2       -0.2965
    198 C         147.6914  143.9894  171.3409 C.2     1  TYR1        0.2372
    199 O         146.9132  144.7744  170.3269 O.2     1  TYR1       -0.2737
    200 H         148.3869  141.9961  171.8297 H       2  UNK2        0.1499
    201 CA        148.2848  144.6824  172.5315 C.3     1  TYR1        0.1327
    202 N         147.6554  145.9374  173.0596 N.3     1  TYR1       -0.3148
    203 H1        146.8405  146.1734  172.4934 H       1  TYR1        0.1192
    204 H2        148.3312  146.7004  173.0176 H       1  TYR1        0.1192
    205 CB        149.5076  144.1204  173.1941 C.3     1  TYR1        0.0512
    206 CG        150.8351  144.7951  173.0141 C.ar    1  TYR1       -0.0201
    207 CD1       151.3006  145.8128  174.0128 C.ar    1  TYR1       -0.0011
    208 CE1       152.6281  146.4876  173.8330 C.ar    1  TYR1        0.0363
    209 CZ        153.4902  146.1446  172.6543 C.ar    1  TYR1        0.1337
    210 OH        154.8178  146.8193  172.4744 O.3     1  TYR1       -0.5055
    211 CE2       153.0247  145.1268  171.6556 C.ar    1  TYR1        0.0363
    212 CD2       151.6972  144.4520  171.8354 C.ar    1  TYR1       -0.0011
    213 HH        155.1086  147.4551  173.0982 H       1  TYR1        0.2922
    214 C         147.3828  132.2729  159.4369 C.3     9  UNK9        0.1660
    215 O         148.5616  133.0689  159.9132 O.3    11  UNK11      -0.3798
    216 H         148.8065  133.7201  159.2372 H      11  UNK11       0.2105
    217 C         132.1455  138.0870  155.1034 C.3     9  UNK9       -0.1350
    218 C         131.9760  139.2095  154.1230 C.3     9  UNK9       -0.0357
    219 C         130.9779  137.4095  155.0989 C.3     9  UNK9       -0.0357
    220 C         131.7180  141.6225  158.7295 C.3     9  UNK9        0.0289
    221 C         130.3421  139.5057  158.1159 C.3     9  UNK9        0.0001
    222 C         130.4832  140.7852  158.8859 C.3     9  UNK9        0.0021
    223 C         129.6142  141.5100  159.8706 C.3     9  UNK9        0.0001
    224 CB        153.7240  135.3937  167.3973 C.3     4  LYS4        0.0290
    225 CG        153.7916  134.5131  168.6097 C.3     4  LYS4        0.0036
    226 CD        153.6021  135.1023  169.9761 C.3     4  LYS4        0.0169
    227 CE        152.2282  135.4772  170.4472 C.3     4  LYS4        0.0651
    228 NZ        151.9534  135.6276  171.9141 N.3     4  LYS4       -0.3211
    229 HZ1       152.0498  134.7216  172.3727 H       4  LYS4        0.1189
    230 HZ2       151.0046  135.9773  172.0481 H       4  LYS4        0.1189
    231 CB        151.5100  139.1523  170.0056 C.3     3  GLN3        0.0385
    232 CG        152.0863  140.5314  170.1312 C.3     3  GLN3        0.0870
    233 CD        151.7153  141.5925  169.1380 C.2     3  GLN3        0.2194
    234 NE2       151.2856  142.9484  169.6144 N.am    3  GLN3       -0.3288
    235 OE1       151.7740  141.2978  167.6685 O.2     3  GLN3       -0.2753
    236 HE21      151.2471  143.1419  170.5790 H       3  GLN3        0.1449
    237 HE22      151.0422  143.6449  168.9626 H       3  GLN3        0.1449
    238 C         141.1180  142.8952  166.8031 C.3     9  UNK9        0.0290
    239 C         141.6250  142.1662  168.0120 C.3     9  UNK9        0.0036
    240 C         140.6713  141.4018  168.8816 C.3     9  UNK9        0.0169
    241 C         139.7715  140.3649  168.2770 C.3     9  UNK9        0.0651
    242 N         138.6584  139.5126  168.8102 N.3     9  UNK9       -0.3211
    243 H         139.0498  138.7408  169.3501 H       9  UNK9        0.1189
    244 H         138.1123  139.1412  168.0328 H       9  UNK9        0.1189
    245 C         144.9797  139.5964  165.8729 C.3     9  UNK9        0.0325
    246 C         145.0356  138.7696  167.1233 C.3     9  UNK9        0.0450
    247 C         143.7690  138.2488  167.7353 C.3     9  UNK9        0.1740
    248 N         143.8275  137.1736  168.7795 N.pl3   9  UNK9       -0.2625
    249 H         143.1128  137.1019  169.4528 H       9  UNK9        0.2587
    250 C         144.9748  136.2076  168.7980 C.cat   9  UNK9        0.3769
    251 N         145.7749  135.5193  167.7321 N.pl3   9  UNK9       -0.1298
    252 N         145.2870  135.9641  170.2448 N.pl3   9  UNK9       -0.2892
    253 H         145.5700  135.6791  166.7825 H       9  UNK9        0.3062
    254 H         144.7620  136.4158  170.9445 H       9  UNK9        0.2546
    255 H         146.0171  135.3527  170.4947 H       9  UNK9        0.2546
    256 C         147.2316  135.7782  163.2251 C.3     9  UNK9        0.0408
    257 C         147.6442  134.4078  163.6744 C.3     9  UNK9        0.1163
    258 C         149.0412  133.9242  163.4203 C.2     9  UNK9        0.3649
    259 O         149.3133  132.9788  162.2880 O.co2   9  UNK9       -0.2457
    260 O         150.1661  134.3860  164.2987 O.co2   9  UNK9       -0.2457
    261 C         136.1979  145.8168  166.5644 C.3     9  UNK9        0.0408
    262 C         136.0319  147.1343  165.8666 C.3     9  UNK9        0.1163
    263 C         134.6845  147.7913  165.8154 C.2     9  UNK9        0.3649
    264 O         134.3023  148.6275  164.6301 O.co2   9  UNK9       -0.2457
    265 O         133.7191  147.6122  166.9494 O.co2   9  UNK9       -0.2457
    266 CB        145.4002  129.8447  155.3339 C.3    10  ASP10       0.1429
    267 CG        145.4826  128.5407  156.0705 C.2    10  ASP10       0.3671
    268 OD1       144.7487  127.2731  155.7470 O.co2  10  ASP10      -0.2456
    269 OD2       146.2457  128.0695  157.2729 O.co2  10  ASP10      -0.2456
    270 C         127.8779  140.2576  154.4923 C.3     9  UNK9        0.0289
    271 C         127.9743  140.4009  153.0023 C.3     9  UNK9        0.0021
    272 C         129.2178  140.9655  152.3820 C.3     9  UNK9        0.0001
    273 C         126.8271  139.9796  152.1325 C.3     9  UNK9        0.0001
    274 C         127.2523  143.9589  158.1624 C.3     9  UNK9        0.0569
    275 C         127.0909  144.9476  157.0459 C.2     9  UNK9        0.0002
    276 C         126.5096  146.3253  157.1652 C.2     9  UNK9        0.0943
    277 N         126.5419  146.9613  155.8072 N.2     9  UNK9       -0.2482
    278 C         127.1431  145.9767  154.8484 C.2     9  UNK9        0.0631
    279 C         127.4255  146.0527  153.3772 C.3     9  UNK9        0.0717
    280 C         128.0471  144.8841  152.6715 C.2     9  UNK9       -0.0198
    281 C         128.3864  143.6396  153.4370 C.2     9  UNK9       -0.0042
    282 C         128.1041  143.5637  154.9083 C.2     9  UNK9        0.0006
    283 C         127.4824  144.7323  155.6140 C.2     9  UNK9        0.0115
    284 C         130.8269  136.4680  152.3701 C.3     9  UNK9        0.0276
    285 C         129.7018  135.5066  152.6151 C.3     9  UNK9        0.0449
    286 C         128.9663  135.5303  153.9221 C.3     9  UNK9        0.1740
    287 N         128.1897  136.7492  154.3238 N.pl3   9  UNK9       -0.2625
    288 H         128.2207  137.5589  153.7647 H       9  UNK9        0.2587
    289 C         127.3660  136.7343  155.5773 C.cat   9  UNK9        0.3769
    290 N         126.4908  137.9050  155.9136 N.pl3   9  UNK9       -0.1298
    291 N         127.4176  135.5485  156.4945 N.pl3   9  UNK9       -0.2892
    292 H         126.4569  138.6833  155.3116 H       9  UNK9        0.3062
    293 H         127.9920  134.7801  156.2738 H       9  UNK9        0.2546
    294 H         126.8769  135.5387  157.3173 H       9  UNK9        0.2546
    295 CB        152.7218  129.1311  159.7277 C.3     6  LEU6        0.0290
    296 CG        153.0227  128.5578  158.3747 C.3     6  LEU6        0.0021
    297 CD1       153.2527  129.4713  157.2074 C.3     6  LEU6        0.0001
    298 CD2       153.0937  127.0710  158.1890 C.3     6  LEU6        0.0001
    299 CB        154.1515  131.8583  163.7712 C.3     5  PHE5        0.0553
    300 CG        154.2648  130.6665  164.6750 C.ar    5  PHE5       -0.0200
    301 CD1       154.5885  130.8549  166.1275 C.ar    5  PHE5       -0.0042
    302 CE1       154.7019  129.6632  167.0314 C.ar    5  PHE5       -0.0003
    303 CZ        154.4916  128.2831  166.4828 C.ar    5  PHE5       -0.0000
    304 CE2       154.1679  128.0947  165.0303 C.ar    5  PHE5       -0.0003
    305 CD2       154.0545  129.2864  164.1264 C.ar    5  PHE5       -0.0042
@<TRIPOS>UNITY_ATOM_ATTR
59 1
charge -1
64 1
charge -1
68 1
charge -1
@<TRIPOS>BOND
     1   221   222    1
     2   222   223    1
     3   222   220    1
     4     1   220    1
     5     1     2    1
     6     2     3   am
     7     3     4    2
     8     3     5    1
     9     5     6    1
    10     6     7   am
    11     7     8    2
    12     7     9    1
    13     9   261    1
    14   261   262    1
    15   262   263    1
    16   263   264   ar
    17   263   265   ar
    18     9    10    1
    19    10    11   am
    20    11    12    2
    21    11    13    1
    22    13    14    1
    23    14    15    1
    24    15    16    3
    25    16    17    1
    26    17    18    1
    27    18   197    1
    28   197   198   am
    29   198   199    2
    30   198   201    1
    31   201   202    1
    32   201   205    1
    33   205   206    1
    34   206   207   ar
    35   207   208   ar
    36   208   209   ar
    37   209   210    1
    38   209   211   ar
    39   211   212   ar
    40    18    19    1
    41    19    20    2
    42    19    21   am
    43    21    22    1
    44    22   231    1
    45   231   232    1
    46   232   233    1
    47   233   234   am
    48   233   235    2
    49    22    23    1
    50    23    24    2
    51    23    25   am
    52    25    26    1
    53    26   224    1
    54   224   225    1
    55   225   226    1
    56   226   227    1
    57   227   228    1
    58    26    27    1
    59    27    28    2
    60    27    29   am
    61    29    30    1
    62    30   299    1
    63   299   300    1
    64   300   301   ar
    65   301   302   ar
    66   302   303   ar
    67   303   304   ar
    68   304   305   ar
    69    30    31    1
    70    31    32    2
    71    31    33   am
    72    33    34    1
    73    34   295    1
    74   295   296    1
    75   296   297    1
    76   296   298    1
    77    34    35    1
    78    35    36    2
    79    35    37   am
    80    37    38    1
    81    38    39    1
    82    38    40    1
    83    40    41    2
    84    40    42   am
    85    42    43    1
    86    43    44    1
    87    44    45    1
    88    46    45    1
    89    46    47    1
    90    47    48    2
    91    47    49   am
    92    50    49    1
    93    50    51    1
    94    51    52    1
    95    52    53    3
    96    53    54    1
    97    55    54    1
    98    55    56    1
    99    56    57   am
   100    57    58    2
   101    57    59    1
   102    59   217    1
   103   217   218    1
   104   217   219    1
   105    59    60    1
   106    60    61   am
   107    61    62    2
   108    55    63    1
   109    63    64    2
   110    63    65   am
   111    65    66    1
   112    66   284    1
   113   284   285    1
   114   285   286    1
   115   286   287    1
   116   287   289    1
   117   289   290    2
   118   289   291    1
   119    66    67    1
   120    67    68    2
   121    67    69   am
   122    69    70    1
   123    70   270    1
   124   270   271    1
   125   271   272    1
   126   271   273    1
   127    70    71    1
   128    71    72    2
   129    71    73   am
   130    73    74    1
   131    74   274    1
   132   274   275    1
   133   275   276    2
   134   276   277    1
   135   277   278    2
   136   278   279    1
   137   279   280    1
   138   280   281    2
   139   281   282    1
   140   282   283    2
   141    74    75    1
   142    75    76    2
   143    75    77   am
   144    77    78    1
   145    78   132    1
   146   132   133    2
   147   132   134   am
   148   134   136    1
   149   136   190    1
   150   190   191    1
   151   191   192    1
   152   192   193    1
   153   193   194    1
   154   136   137    1
   155   137   138    2
   156   137   139   am
   157   139   141    1
   158   141   183    1
   159   183   184    1
   160   184   185    1
   161   185   186    1
   162   186   187    1
   163   141   142    1
   164   142   143    2
   165   142   144   am
   166   144   146    1
   167   146   176    1
   168   176   177    1
   169   177   178    1
   170   178   179    1
   171   179   180    1
   172   146   147    1
   173   147   148    2
   174   147   149   am
   175   149   151    1
   176   151   172    1
   177   172   173    1
   178   173   174    1
   179   173   175    1
   180   151   152    1
   181   152   153    2
   182   152   154   am
   183   154   156    1
   184   156   162    1
   185   162   163    1
   186   163   164    2
   187   164   165    1
   188   165   166    2
   189   166   167    1
   190   167   168    1
   191   168   169    2
   192   169   170    1
   193   170   171    2
   194   156   157    1
   195   157   158   am
   196   157   159    2
   197    78    79    1
   198    79    80    1
   199    80    81    3
   200    81    82    1
   201    82    83    1
   202    83    84    1
   203    84    85   am
   204    85    86    2
   205    85    87    1
   206    87   238    1
   207   238   239    1
   208   239   240    1
   209   240   241    1
   210   241   242    1
   211    87    88    1
   212    88    89   am
   213    89    90    2
   214    89    91    1
   215    91   245    1
   216   245   246    1
   217   246   247    1
   218   247   248    1
   219   248   250    1
   220   250   251    2
   221   250   252    1
   222    91    92    1
   223    92    93   am
   224    93    94    2
   225    93    95    1
   226    95   256    1
   227   256   257    1
   228   257   258    1
   229   258   259   ar
   230   258   260   ar
   231    95    96    1
   232    96    97   am
   233    97    98    2
   234    97    99    1
   235    99   214    1
   236   214   215    1
   237    99   100    1
   238   100   101   am
   239   101   102    2
   240   101   103    1
   241   103   266    1
   242   266   267    1
   243   267   268   ar
   244   267   269   ar
   245   103   104    1
   246   104   105   am
   247   105   106    2
   248    83   107    1
   249   107   108    2
   250   107   109   am
   251    61     1    1
   252   283   275    1
   253   171   163    1
   254   109    13    1
   255   212   206   ar
   256   305   300   ar
   257    46    42    1
   258   105    50    1
   259   283   278    1
   260   171   166    1
   261     2   110    1
   262     6   111    1
   263    10   112    1
   264   197   200    1
   265   202   203    1
   266   202   204    1
   267   210   213    1
   268    21   113    1
   269   234   236    1
   270   234   237    1
   271    25   114    1
   272   228   229    1
   273   228   230    1
   274    29   115    1
   275    33   116    1
   276    37   117    1
   277    49   118    1
   278    56   119    1
   279    60   120    1
   280    65   121    1
   281   287   288    1
   282   290   292    1
   283   291   293    1
   284   291   294    1
   285    69   122    1
   286    73   123    1
   287    77   124    1
   288   134   135    1
   289   194   195    1
   290   194   196    1
   291   139   140    1
   292   187   188    1
   293   187   189    1
   294   144   145    1
   295   180   181    1
   296   180   182    1
   297   149   150    1
   298   154   155    1
   299   158   160    1
   300   158   161    1
   301    84   125    1
   302   242   243    1
   303   242   244    1
   304    88   126    1
   305   248   249    1
   306   251   253    1
   307   252   254    1
   308   252   255    1
   309    92   127    1
   310    96   128    1
   311   215   216    1
   312   100   129    1
   313   104   130    1
   314   109   131    1
