@<TRIPOS>MOLECULE
*****
 34 38 0 0 0
SMALL
GASTEIGER

@<TRIPOS>ATOM
      1 N         138.3318  138.8083  160.9700 N.pl3   1  UNL1       -0.2802
      2 H         137.4876  138.5941  160.5111 H       1  UNL1        0.1552
      3 C         139.5839  139.0269  160.1734 C.ar    1  UNL1        0.2208
      4 N         139.7354  138.3891  158.8243 N.ar    1  UNL1       -0.2111
      5 C         140.9874  138.6077  158.0277 C.ar    1  UNL1        0.1147
      6 C         142.0880  139.4641  158.5803 C.ar    1  UNL1        0.0960
      7 CL        143.3400  139.6827  157.7837 Cl      1  UNL1       -0.0790
      8 C         141.9365  140.1019  159.9295 C.ar    1  UNL1        0.1138
      9 N         140.6845  139.8833  160.7260 N.ar    1  UNL1       -0.2111
     10 C         143.0370  140.9583  160.4821 C.ar    1  UNL1        0.1031
     11 C         143.5704  142.2164  159.8634 C.ar    1  UNL1        0.1196
     12 N         144.6604  142.7426  160.7493 N.ar    1  UNL1       -0.2248
     13 C         144.8008  141.8097  161.9155 C.ar    1  UNL1        0.1479
     14 C         145.7126  141.8219  163.1065 C.ar    1  UNL1        0.0374
     15 C         145.6211  140.7314  164.1323 C.ar    1  UNL1        0.0046
     16 C         144.6177  139.6287  163.9671 C.ar    1  UNL1        0.0191
     17 C         143.7059  139.6164  162.7762 C.ar    1  UNL1        0.0815
     18 N         143.7975  140.7070  161.7504 N.ar    1  UNL1       -0.2874
     19 C         137.8982  140.1724  163.1382 C.ar    1  UNL1        0.1522
     20 C         137.9325  140.2800  164.6341 C.ar    1  UNL1        0.0427
     21 C         138.4346  139.1310  165.4573 C.ar    1  UNL1        0.0567
     22 C         138.9025  137.8745  164.7848 C.ar    1  UNL1        0.0060
     23 C         138.8683  137.7669  163.2891 C.ar    1  UNL1        0.0179
     24 C         138.3661  138.9159  162.4657 C.ar    1  UNL1        0.0849
     25 C         138.4689  139.2386  166.9530 C.2     1  UNL1        0.2493
     26 O         137.4699  138.4873  167.7821 O.2     1  UNL1       -0.2699
     27 N         139.5022  140.0977  167.6196 N.am    1  UNL1       -0.2709
     28 C         140.5012  140.8490  166.7905 C.3     1  UNL1        0.1258
     29 C         141.5345  141.7080  167.4572 C.3     1  UNL1        0.1637
     30 O         141.5688  141.8157  168.9529 O.3     1  UNL1       -0.3501
     31 C         140.5698  141.0644  169.7820 C.3     1  UNL1        0.1637
     32 C         139.5365  140.2053  169.1154 C.3     1  UNL1        0.1258
     33 C         137.6319  142.7306  162.7714 C.3     1  UNL1        0.2525
     34 O         137.3960  141.3213  162.3150 O.3     1  UNL1       -0.4702
@<TRIPOS>BOND
     1    33    34    1
     2    34    19    1
     3    19    20   ar
     4    20    21   ar
     5    21    25    1
     6    25    26    2
     7    25    27   am
     8    27    28    1
     9    28    29    1
    10    29    30    1
    11    30    31    1
    12    31    32    1
    13    21    22   ar
    14    22    23   ar
    15    23    24   ar
    16    24     1    1
    17     1     3    1
    18     3     4   ar
    19     4     5   ar
    20     5     6   ar
    21     6     7    1
    22     6     8   ar
    23     8    10    1
    24    10    11   ar
    25    11    12   ar
    26    12    13   ar
    27    13    14   ar
    28    14    15   ar
    29    15    16   ar
    30    16    17   ar
    31    17    18   ar
    32     8     9   ar
    33    24    19   ar
    34     9     3   ar
    35    32    27    1
    36    18    10   ar
    37    18    13   ar
    38     1     2    1
@<TRIPOS>MOLECULE
*****
 34 38 0 0 0
SMALL
GASTEIGER

@<TRIPOS>ATOM
      1 N         137.9371  139.3010  161.1978 N.pl3   1  UNL1       -0.2802
      2 H         137.1613  138.8194  160.8296 H       1  UNL1        0.1552
      3 C         138.8814  140.0164  160.2777 C.ar    1  UNL1        0.2208
      4 N         138.5640  140.1281  158.8160 N.ar    1  UNL1       -0.2111
      5 C         139.5083  140.8434  157.8960 C.ar    1  UNL1        0.1147
      6 C         140.7701  141.4471  158.4377 C.ar    1  UNL1        0.0960
      7 CL        141.7144  142.1625  157.5177 Cl      1  UNL1       -0.0790
      8 C         141.0876  141.3354  159.8995 C.ar    1  UNL1        0.1138
      9 N         140.1432  140.6200  160.8195 N.ar    1  UNL1       -0.2111
     10 C         142.3494  141.9390  160.4413 C.ar    1  UNL1        0.1031
     11 C         143.7464  141.5770  160.0321 C.ar    1  UNL1        0.1196
     12 N         144.6960  142.4249  160.8252 N.ar    1  UNL1       -0.2248
     13 C         143.8860  143.3110  161.7245 C.ar    1  UNL1        0.1479
     14 C         144.2817  144.3525  162.7289 C.ar    1  UNL1        0.0374
     15 C         143.2271  145.0937  163.4958 C.ar    1  UNL1        0.0046
     16 C         141.7767  144.7934  163.2585 C.ar    1  UNL1        0.0191
     17 C         141.3811  143.7519  162.2542 C.ar    1  UNL1        0.0815
     18 N         142.4357  143.0107  161.4872 N.ar    1  UNL1       -0.2874
     19 C         137.7493  140.5056  163.4920 C.ar    1  UNL1        0.1522
     20 C         137.9869  140.5238  164.9730 C.ar    1  UNL1        0.0427
     21 C         138.6499  139.3556  165.6407 C.ar    1  UNL1        0.0567
     22 C         139.0753  138.1692  164.8273 C.ar    1  UNL1        0.0060
     23 C         138.8377  138.1510  163.3464 C.ar    1  UNL1        0.0179
     24 C         138.1747  139.3192  162.6787 C.ar    1  UNL1        0.0849
     25 C         138.8875  139.3739  167.1216 C.2     1  UNL1        0.2493
     26 O         137.8473  138.8290  168.0549 O.2     1  UNL1       -0.2699
     27 N         140.1654  139.9370  167.6692 N.am    1  UNL1       -0.2709
     28 C         141.2056  140.4819  166.7359 C.3     1  UNL1        0.1258
     29 C         142.4835  141.0450  167.2836 C.3     1  UNL1        0.1637
     30 O         142.7212  141.0633  168.7645 O.3     1  UNL1       -0.3501
     31 C         141.6809  140.5185  169.6978 C.3     1  UNL1        0.1637
     32 C         140.4031  139.9553  169.1502 C.3     1  UNL1        0.1258
     33 C         137.7854  142.9997  162.7650 C.3     1  UNL1        0.2525
     34 O         137.0863  141.6739  162.8244 O.3     1  UNL1       -0.4702
@<TRIPOS>BOND
     1    33    34    1
     2    34    19    1
     3    19    20   ar
     4    20    21   ar
     5    21    25    1
     6    25    26    2
     7    25    27   am
     8    27    28    1
     9    28    29    1
    10    29    30    1
    11    30    31    1
    12    31    32    1
    13    21    22   ar
    14    22    23   ar
    15    23    24   ar
    16    24     1    1
    17     1     3    1
    18     3     4   ar
    19     4     5   ar
    20     5     6   ar
    21     6     7    1
    22     6     8   ar
    23     8    10    1
    24    10    11   ar
    25    11    12   ar
    26    12    13   ar
    27    13    14   ar
    28    14    15   ar
    29    15    16   ar
    30    16    17   ar
    31    17    18   ar
    32     8     9   ar
    33    24    19   ar
    34     9     3   ar
    35    32    27    1
    36    18    10   ar
    37    18    13   ar
    38     1     2    1
@<TRIPOS>MOLECULE
*****
 34 38 0 0 0
SMALL
GASTEIGER

@<TRIPOS>ATOM
      1 N         142.7280  138.4996  160.7262 N.pl3   1  UNL1       -0.2802
      2 H         143.2720  137.8847  160.1828 H       1  UNL1        0.1552
      3 C         141.7593  139.4316  160.0607 C.ar    1  UNL1        0.2208
      4 N         141.2367  139.1169  158.6903 N.ar    1  UNL1       -0.2111
      5 C         140.2680  140.0488  158.0248 C.ar    1  UNL1        0.1147
      6 C         139.8219  141.2955  158.7296 C.ar    1  UNL1        0.0960
      7 CL        138.8531  142.2275  158.0640 Cl      1  UNL1       -0.0790
      8 C         140.3445  141.6103  160.1000 C.ar    1  UNL1        0.1138
      9 N         141.3132  140.6783  160.7654 N.ar    1  UNL1       -0.2111
     10 C         139.8984  142.8570  160.8047 C.ar    1  UNL1        0.1031
     11 C         140.0841  144.2620  160.3134 C.ar    1  UNL1        0.1196
     12 N         139.4887  145.1909  161.3296 N.ar    1  UNL1       -0.2248
     13 C         138.9349  144.3599  162.4490 C.ar    1  UNL1        0.1479
     14 C         138.2329  144.7304  163.7217 C.ar    1  UNL1        0.0374
     15 C         137.7840  143.6584  164.6700 C.ar    1  UNL1        0.0046
     16 C         138.0372  142.2160  164.3455 C.ar    1  UNL1        0.0191
     17 C         138.7392  141.8455  163.0729 C.ar    1  UNL1        0.0815
     18 N         139.1881  142.9175  162.1246 N.ar    1  UNL1       -0.2874
     19 C         141.8364  137.8267  163.0719 C.ar    1  UNL1        0.1522
     20 C         141.9765  137.8315  164.5654 C.ar    1  UNL1        0.0427
     21 C         143.1482  138.5142  165.2066 C.ar    1  UNL1        0.0567
     22 C         144.1798  139.1920  164.3543 C.ar    1  UNL1        0.0060
     23 C         144.0397  139.1871  162.8609 C.ar    1  UNL1        0.0179
     24 C         142.8680  138.5045  162.2196 C.ar    1  UNL1        0.0849
     25 C         143.2882  138.5191  166.7000 C.2     1  UNL1        0.2493
     26 O         144.2651  137.5951  167.3648 O.2     1  UNL1       -0.2699
     27 N         142.4513  139.4480  167.5287 N.am    1  UNL1       -0.2709
     28 C         141.4744  140.3720  166.8639 C.3     1  UNL1        0.1258
     29 C         140.6375  141.3009  167.6927 C.3     1  UNL1        0.1637
     30 O         140.7774  141.3058  169.1861 O.3     1  UNL1       -0.3501
     31 C         141.7543  140.3818  169.8509 C.3     1  UNL1        0.1637
     32 C         142.5912  139.4529  169.0222 C.3     1  UNL1        0.1258
     33 C         139.3401  137.8433  162.3522 C.3     1  UNL1        0.2525
     34 O         140.6647  137.1440  162.4308 O.3     1  UNL1       -0.4702
@<TRIPOS>BOND
     1    33    34    1
     2    34    19    1
     3    19    20   ar
     4    20    21   ar
     5    21    25    1
     6    25    26    2
     7    25    27   am
     8    27    28    1
     9    28    29    1
    10    29    30    1
    11    30    31    1
    12    31    32    1
    13    21    22   ar
    14    22    23   ar
    15    23    24   ar
    16    24     1    1
    17     1     3    1
    18     3     4   ar
    19     4     5   ar
    20     5     6   ar
    21     6     7    1
    22     6     8   ar
    23     8    10    1
    24    10    11   ar
    25    11    12   ar
    26    12    13   ar
    27    13    14   ar
    28    14    15   ar
    29    15    16   ar
    30    16    17   ar
    31    17    18   ar
    32     8     9   ar
    33    24    19   ar
    34     9     3   ar
    35    32    27    1
    36    18    10   ar
    37    18    13   ar
    38     1     2    1
@<TRIPOS>MOLECULE
*****
 34 38 0 0 0
SMALL
GASTEIGER

@<TRIPOS>ATOM
      1 N         137.6395  139.5250  160.8972 N.pl3   1  UNL1       -0.2802
      2 H         136.7411  139.2672  160.5880 H       1  UNL1        0.1552
      3 C         138.6819  139.9469  159.9045 C.ar    1  UNL1        0.2208
      4 N         139.4699  138.9113  159.1586 N.ar    1  UNL1       -0.2111
      5 C         140.5123  139.3332  158.1659 C.ar    1  UNL1        0.1147
      6 C         140.7666  140.7907  157.9192 C.ar    1  UNL1        0.0960
      7 CL        141.8090  141.2126  156.9265 Cl      1  UNL1       -0.0790
      8 C         139.9785  141.8264  158.6652 C.ar    1  UNL1        0.1138
      9 N         138.9362  141.4044  159.6578 N.ar    1  UNL1       -0.2111
     10 C         140.2329  143.2839  158.4185 C.ar    1  UNL1        0.1031
     11 C         141.1566  144.1637  159.2077 C.ar    1  UNL1        0.1196
     12 N         141.1027  145.5411  158.6161 N.ar    1  UNL1       -0.2248
     13 C         140.1458  145.5126  157.4614 C.ar    1  UNL1        0.1479
     14 C         139.6945  146.5767  156.5053 C.ar    1  UNL1        0.0374
     15 C         138.7056  146.2457  155.4271 C.ar    1  UNL1        0.0046
     16 C         138.1681  144.8507  155.3050 C.ar    1  UNL1        0.0191
     17 C         138.6193  143.7866  156.2610 C.ar    1  UNL1        0.0815
     18 N         139.6082  144.1176  157.3392 N.ar    1  UNL1       -0.2874
     19 C         137.6895  140.6973  163.2152 C.ar    1  UNL1        0.1522
     20 C         138.0160  140.6680  164.6790 C.ar    1  UNL1        0.0427
     21 C         138.6189  139.4371  165.2885 C.ar    1  UNL1        0.0567
     22 C         138.8953  138.2355  164.4342 C.ar    1  UNL1        0.0060
     23 C         138.5688  138.2649  162.9705 C.ar    1  UNL1        0.0179
     24 C         137.9659  139.4957  162.3609 C.ar    1  UNL1        0.0849
     25 C         138.9453  139.4079  166.7522 C.2     1  UNL1        0.2493
     26 O         137.9668  138.8237  167.7274 O.2     1  UNL1       -0.2699
     27 N         140.2504  139.9629  167.2407 N.am    1  UNL1       -0.2709
     28 C         141.2290  140.5472  166.2655 C.3     1  UNL1        0.1258
     29 C         142.5341  141.1022  166.7542 C.3     1  UNL1        0.1637
     30 O         142.8607  141.0730  168.2179 O.3     1  UNL1       -0.3501
     31 C         141.8821  140.4888  169.1931 C.3     1  UNL1        0.1637
     32 C         140.5770  139.9337  168.7046 C.3     1  UNL1        0.1258
     33 C         137.8485  143.2203  162.6158 C.3     1  UNL1        0.2525
     34 O         137.0866  141.9282  162.6058 O.3     1  UNL1       -0.4702
@<TRIPOS>BOND
     1    33    34    1
     2    34    19    1
     3    19    20   ar
     4    20    21   ar
     5    21    25    1
     6    25    26    2
     7    25    27   am
     8    27    28    1
     9    28    29    1
    10    29    30    1
    11    30    31    1
    12    31    32    1
    13    21    22   ar
    14    22    23   ar
    15    23    24   ar
    16    24     1    1
    17     1     3    1
    18     3     4   ar
    19     4     5   ar
    20     5     6   ar
    21     6     7    1
    22     6     8   ar
    23     8    10    1
    24    10    11   ar
    25    11    12   ar
    26    12    13   ar
    27    13    14   ar
    28    14    15   ar
    29    15    16   ar
    30    16    17   ar
    31    17    18   ar
    32     8     9   ar
    33    24    19   ar
    34     9     3   ar
    35    32    27    1
    36    18    10   ar
    37    18    13   ar
    38     1     2    1
@<TRIPOS>MOLECULE
*****
 34 38 0 0 0
SMALL
GASTEIGER

@<TRIPOS>ATOM
      1 N         138.3862  138.5443  161.2103 N.pl3   1  UNL1       -0.2802
      2 H         137.5559  138.2407  160.7771 H       1  UNL1        0.1552
      3 C         139.6043  138.8270  160.3819 C.ar    1  UNL1        0.2208
      4 N         140.7162  139.6624  160.9440 N.ar    1  UNL1       -0.2111
      5 C         141.9343  139.9452  160.1156 C.ar    1  UNL1        0.1147
      6 C         142.0405  139.3926  158.7251 C.ar    1  UNL1        0.0960
      7 CL        143.2586  139.6753  157.8967 Cl      1  UNL1       -0.0790
      8 C         140.9286  138.5572  158.1630 C.ar    1  UNL1        0.1138
      9 N         139.7106  138.2744  158.9914 N.ar    1  UNL1       -0.2111
     10 C         141.0348  138.0046  156.7726 C.ar    1  UNL1        0.1031
     11 C         140.2934  138.5018  155.5672 C.ar    1  UNL1        0.1196
     12 N         140.7015  137.6622  154.3931 N.ar    1  UNL1       -0.2248
     13 C         141.6952  136.6461  154.8728 C.ar    1  UNL1        0.1479
     14 C         142.4391  135.5556  154.1605 C.ar    1  UNL1        0.0374
     15 C         143.3889  134.6767  154.9189 C.ar    1  UNL1        0.0046
     16 C         143.5949  134.8882  156.3896 C.ar    1  UNL1        0.0191
     17 C         142.8511  135.9788  157.1018 C.ar    1  UNL1        0.0815
     18 N         141.9012  136.8577  156.3435 N.ar    1  UNL1       -0.2874
     19 C         137.9081  139.9848  163.3189 C.ar    1  UNL1        0.1522
     20 C         137.9551  140.1644  164.8075 C.ar    1  UNL1        0.0427
     21 C         138.5270  139.0832  165.6757 C.ar    1  UNL1        0.0567
     22 C         139.0521  137.8224  165.0555 C.ar    1  UNL1        0.0060
     23 C         139.0051  137.6428  163.5671 C.ar    1  UNL1        0.0179
     24 C         138.4331  138.7240  162.6987 C.ar    1  UNL1        0.0849
     25 C         138.5739  139.2629  167.1642 C.2     1  UNL1        0.2493
     26 O         137.5375  138.6118  168.0313 O.2     1  UNL1       -0.2699
     27 N         139.6573  140.0937  167.7855 N.am    1  UNL1       -0.2709
     28 C         140.6938  140.7448  166.9183 C.3     1  UNL1        0.1258
     29 C         141.7771  141.5756  167.5397 C.3     1  UNL1        0.1637
     30 O         141.8241  141.7553  169.0282 O.3     1  UNL1       -0.3501
     31 C         140.7877  141.1042  169.8953 C.3     1  UNL1        0.1637
     32 C         139.7043  140.2734  169.2740 C.3     1  UNL1        0.1258
     33 C         137.7722  142.4887  162.6394 C.3     1  UNL1        0.2525
     34 O         137.3361  141.0660  162.4507 O.3     1  UNL1       -0.4702
@<TRIPOS>BOND
     1    33    34    1
     2    34    19    1
     3    19    20   ar
     4    20    21   ar
     5    21    25    1
     6    25    26    2
     7    25    27   am
     8    27    28    1
     9    28    29    1
    10    29    30    1
    11    30    31    1
    12    31    32    1
    13    21    22   ar
    14    22    23   ar
    15    23    24   ar
    16    24     1    1
    17     1     3    1
    18     3     4   ar
    19     4     5   ar
    20     5     6   ar
    21     6     7    1
    22     6     8   ar
    23     8    10    1
    24    10    11   ar
    25    11    12   ar
    26    12    13   ar
    27    13    14   ar
    28    14    15   ar
    29    15    16   ar
    30    16    17   ar
    31    17    18   ar
    32     8     9   ar
    33    24    19   ar
    34     9     3   ar
    35    32    27    1
    36    18    10   ar
    37    18    13   ar
    38     1     2    1
@<TRIPOS>MOLECULE
*****
 34 38 0 0 0
SMALL
GASTEIGER

@<TRIPOS>ATOM
      1 N         143.6824  143.8768  161.6973 N.pl3   1  UNL1       -0.2802
      2 H         144.1973  144.6956  161.8805 H       1  UNL1        0.1552
      3 C         143.9520  142.6292  162.4852 C.ar    1  UNL1        0.2208
      4 N         145.2604  142.4613  163.1993 N.ar    1  UNL1       -0.2111
      5 C         145.5300  141.2137  163.9873 C.ar    1  UNL1        0.1147
      6 C         144.4912  140.1341  164.0612 C.ar    1  UNL1        0.0960
      7 CL        144.7608  138.8866  164.8492 Cl      1  UNL1       -0.0790
      8 C         143.1828  140.3021  163.3471 C.ar    1  UNL1        0.1138
      9 N         142.9132  141.5496  162.5591 N.ar    1  UNL1       -0.2111
     10 C         142.1440  139.2225  163.4210 C.ar    1  UNL1        0.1031
     11 C         142.0957  137.9860  162.5733 C.ar    1  UNL1        0.1196
     12 N         140.8930  137.1892  162.9840 N.ar    1  UNL1       -0.2248
     13 C         140.1980  137.9333  164.0855 C.ar    1  UNL1        0.1479
     14 C         138.9610  137.6290  164.8774 C.ar    1  UNL1        0.0374
     15 C         138.4972  138.5813  165.9394 C.ar    1  UNL1        0.0046
     16 C         139.2704  139.8380  166.2095 C.ar    1  UNL1        0.0191
     17 C         140.5074  140.1423  165.4176 C.ar    1  UNL1        0.0815
     18 N         140.9712  139.1900  164.3556 N.ar    1  UNL1       -0.2874
     19 C         141.3097  144.5474  160.8784 C.ar    1  UNL1        0.1522
     20 C         140.2556  144.5473  159.8111 C.ar    1  UNL1        0.0427
     21 C         140.5201  143.8767  158.4957 C.ar    1  UNL1        0.0567
     22 C         141.8386  143.2061  158.2475 C.ar    1  UNL1        0.0060
     23 C         142.8927  143.2061  159.3147 C.ar    1  UNL1        0.0179
     24 C         142.6283  143.8768  160.6301 C.ar    1  UNL1        0.0849
     25 C         139.4659  143.8767  157.4286 C.2     1  UNL1        0.2493
     26 O         139.3962  145.0055  156.4432 O.2     1  UNL1       -0.2699
     27 N         138.4816  142.7478  157.3468 N.am    1  UNL1       -0.2709
     28 C         138.5514  141.6190  158.3322 C.3     1  UNL1        0.1258
     29 C         137.5669  140.4902  158.2504 C.3     1  UNL1        0.1637
     30 O         136.5128  140.4901  157.1833 O.3     1  UNL1       -0.3501
     31 C         136.4430  141.6189  156.1979 C.3     1  UNL1        0.1637
     32 C         137.4274  142.7478  156.2797 C.3     1  UNL1        0.1258
     33 C         140.4120  144.4479  163.3144 C.3     1  UNL1        0.2525
     34 O         141.0452  145.2180  162.1938 O.3     1  UNL1       -0.4702
@<TRIPOS>BOND
     1    33    34    1
     2    34    19    1
     3    19    20   ar
     4    20    21   ar
     5    21    25    1
     6    25    26    2
     7    25    27   am
     8    27    28    1
     9    28    29    1
    10    29    30    1
    11    30    31    1
    12    31    32    1
    13    21    22   ar
    14    22    23   ar
    15    23    24   ar
    16    24     1    1
    17     1     3    1
    18     3     4   ar
    19     4     5   ar
    20     5     6   ar
    21     6     7    1
    22     6     8   ar
    23     8    10    1
    24    10    11   ar
    25    11    12   ar
    26    12    13   ar
    27    13    14   ar
    28    14    15   ar
    29    15    16   ar
    30    16    17   ar
    31    17    18   ar
    32     8     9   ar
    33    24    19   ar
    34     9     3   ar
    35    32    27    1
    36    18    10   ar
    37    18    13   ar
    38     1     2    1
@<TRIPOS>MOLECULE
*****
 34 38 0 0 0
SMALL
GASTEIGER

@<TRIPOS>ATOM
      1 N         143.9213  139.3079  161.1678 N.pl3   1  UNL1       -0.2802
      2 H         144.5072  138.7097  160.6498 H       1  UNL1        0.1552
      3 C         143.1806  140.4146  160.4774 C.ar    1  UNL1        0.2208
      4 N         143.7092  140.9846  159.1946 N.ar    1  UNL1       -0.2111
      5 C         142.9685  142.0913  158.5042 C.ar    1  UNL1        0.1147
      6 C         141.6993  142.6280  159.0967 C.ar    1  UNL1        0.0960
      7 CL        140.9587  143.7347  158.4064 Cl      1  UNL1       -0.0790
      8 C         141.1707  142.0579  160.3796 C.ar    1  UNL1        0.1138
      9 N         141.9114  140.9513  161.0699 N.ar    1  UNL1       -0.2111
     10 C         139.9015  142.5947  160.9721 C.ar    1  UNL1        0.1031
     11 C         138.5369  142.5133  160.3547 C.ar    1  UNL1        0.1196
     12 N         137.5662  143.1753  161.2871 N.ar    1  UNL1       -0.2248
     13 C         138.3308  143.6658  162.4807 C.ar    1  UNL1        0.1479
     14 C         137.8992  144.3928  163.7197 C.ar    1  UNL1        0.0374
     15 C         138.9110  144.7610  164.7640 C.ar    1  UNL1        0.0046
     16 C         140.3544  144.4021  164.5694 C.ar    1  UNL1        0.0191
     17 C         140.7860  143.6751  163.3304 C.ar    1  UNL1        0.0815
     18 N         139.7742  143.3069  162.2861 N.ar    1  UNL1       -0.2874
     19 C         144.6334  139.8857  163.5986 C.ar    1  UNL1        0.1522
     20 C         144.4814  139.6902  165.0781 C.ar    1  UNL1        0.0427
     21 C         143.4653  138.7213  165.6060 C.ar    1  UNL1        0.0567
     22 C         142.6011  137.9480  164.6546 C.ar    1  UNL1        0.0060
     23 C         142.7532  138.1435  163.1752 C.ar    1  UNL1        0.0179
     24 C         143.7693  139.1124  162.6471 C.ar    1  UNL1        0.0849
     25 C         143.3133  138.5258  167.0854 C.2     1  UNL1        0.2493
     26 O         144.0837  137.4436  167.7821 O.2     1  UNL1       -0.2699
     27 N         142.3909  139.4127  167.8682 N.am    1  UNL1       -0.2709
     28 C         141.6205  140.4949  167.1716 C.3     1  UNL1        0.1258
     29 C         140.6981  141.3817  167.9544 C.3     1  UNL1        0.1637
     30 O         140.5461  141.1863  169.4338 O.3     1  UNL1       -0.3501
     31 C         141.3164  140.1041  170.1305 C.3     1  UNL1        0.1637
     32 C         142.2388  139.2172  169.3477 C.3     1  UNL1        0.1258
     33 C         145.6101  142.2912  163.5002 C.3     1  UNL1        0.2525
     34 O         145.6496  140.8546  163.0706 O.3     1  UNL1       -0.4702
@<TRIPOS>BOND
     1    33    34    1
     2    34    19    1
     3    19    20   ar
     4    20    21   ar
     5    21    25    1
     6    25    26    2
     7    25    27   am
     8    27    28    1
     9    28    29    1
    10    29    30    1
    11    30    31    1
    12    31    32    1
    13    21    22   ar
    14    22    23   ar
    15    23    24   ar
    16    24     1    1
    17     1     3    1
    18     3     4   ar
    19     4     5   ar
    20     5     6   ar
    21     6     7    1
    22     6     8   ar
    23     8    10    1
    24    10    11   ar
    25    11    12   ar
    26    12    13   ar
    27    13    14   ar
    28    14    15   ar
    29    15    16   ar
    30    16    17   ar
    31    17    18   ar
    32     8     9   ar
    33    24    19   ar
    34     9     3   ar
    35    32    27    1
    36    18    10   ar
    37    18    13   ar
    38     1     2    1
@<TRIPOS>MOLECULE
*****
 34 38 0 0 0
SMALL
GASTEIGER

@<TRIPOS>ATOM
      1 N         144.2522  143.4992  166.1137 N.pl3   1  UNL1       -0.2802
      2 H         144.7067  144.2983  166.4658 H       1  UNL1        0.1552
      3 C         143.4658  142.6159  167.0364 C.ar    1  UNL1        0.2208
      4 N         143.7797  142.5950  168.5030 N.ar    1  UNL1       -0.2111
      5 C         142.9934  141.7117  169.4258 C.ar    1  UNL1        0.1147
      6 C         141.8931  140.8494  168.8819 C.ar    1  UNL1        0.0960
      7 CL        141.1068  139.9661  169.8046 Cl      1  UNL1       -0.0790
      8 C         141.5792  140.8703  167.4152 C.ar    1  UNL1        0.1138
      9 N         142.3655  141.7536  166.4925 N.ar    1  UNL1       -0.2111
     10 C         140.4789  140.0080  166.8713 C.ar    1  UNL1        0.1031
     11 C         139.1045  139.8607  167.4537 C.ar    1  UNL1        0.1196
     12 N         138.3361  138.9032  166.5918 N.ar    1  UNL1       -0.2248
     13 C         139.2356  138.4588  165.4768 C.ar    1  UNL1        0.1479
     14 C         139.0198  137.5206  164.3265 C.ar    1  UNL1        0.0374
     15 C         140.1285  137.2652  163.3490 C.ar    1  UNL1        0.0046
     16 C         141.4528  137.9480  163.5217 C.ar    1  UNL1        0.0191
     17 C         141.6686  138.8862  164.6720 C.ar    1  UNL1        0.0815
     18 N         140.5600  139.1416  165.6495 N.ar    1  UNL1       -0.2874
     19 C         143.4904  143.8942  163.6614 C.ar    1  UNL1        0.1522
     20 C         143.5843  143.5599  162.2021 C.ar    1  UNL1        0.0427
     21 C         144.5338  142.4964  161.7359 C.ar    1  UNL1        0.0567
     22 C         145.3893  141.7671  162.7289 C.ar    1  UNL1        0.0060
     23 C         145.2955  142.1014  164.1881 C.ar    1  UNL1        0.0179
     24 C         144.3460  143.1650  164.6544 C.ar    1  UNL1        0.0849
     25 C         144.6276  142.1621  160.2766 C.2     1  UNL1        0.2493
     26 O         145.5369  142.9525  159.3831 O.2     1  UNL1       -0.2699
     27 N         143.8121  141.0374  159.7109 N.am    1  UNL1       -0.2709
     28 C         142.9028  140.2470  160.6045 C.3     1  UNL1        0.1258
     29 C         142.0873  139.1223  160.0387 C.3     1  UNL1        0.1637
     30 O         142.1811  138.7880  158.5795 O.3     1  UNL1       -0.3501
     31 C         143.0904  139.5784  157.6859 C.3     1  UNL1        0.1637
     32 C         143.9059  140.7031  158.2516 C.3     1  UNL1        0.1258
     33 C         141.0607  144.7450  164.0116 C.3     1  UNL1        0.2525
     34 O         142.5410  144.9578  164.1276 O.3     1  UNL1       -0.4702
@<TRIPOS>BOND
     1    33    34    1
     2    34    19    1
     3    19    20   ar
     4    20    21   ar
     5    21    25    1
     6    25    26    2
     7    25    27   am
     8    27    28    1
     9    28    29    1
    10    29    30    1
    11    30    31    1
    12    31    32    1
    13    21    22   ar
    14    22    23   ar
    15    23    24   ar
    16    24     1    1
    17     1     3    1
    18     3     4   ar
    19     4     5   ar
    20     5     6   ar
    21     6     7    1
    22     6     8   ar
    23     8    10    1
    24    10    11   ar
    25    11    12   ar
    26    12    13   ar
    27    13    14   ar
    28    14    15   ar
    29    15    16   ar
    30    16    17   ar
    31    17    18   ar
    32     8     9   ar
    33    24    19   ar
    34     9     3   ar
    35    32    27    1
    36    18    10   ar
    37    18    13   ar
    38     1     2    1
@<TRIPOS>MOLECULE
*****
 34 38 0 0 0
SMALL
GASTEIGER

@<TRIPOS>ATOM
      1 N         143.1252  144.1852  161.5370 N.pl3   1  UNL1       -0.2802
      2 H         143.8639  144.8296  161.6281 H       1  UNL1        0.1552
      3 C         141.9162  144.3010  162.4171 C.ar    1  UNL1        0.2208
      4 N         140.8594  145.3201  162.1095 N.ar    1  UNL1       -0.2111
      5 C         139.6503  145.4359  162.9897 C.ar    1  UNL1        0.1147
      6 C         139.4980  144.5326  164.1774 C.ar    1  UNL1        0.0960
      7 CL        138.2889  144.6484  165.0576 Cl      1  UNL1       -0.0790
      8 C         140.5548  143.5134  164.4851 C.ar    1  UNL1        0.1138
      9 N         141.7638  143.3976  163.6049 N.ar    1  UNL1       -0.2111
     10 C         140.4024  142.6100  165.6728 C.ar    1  UNL1        0.1031
     11 C         141.0227  142.8165  167.0229 C.ar    1  UNL1        0.1196
     12 N         140.6067  141.6757  167.9034 N.ar    1  UNL1       -0.2248
     13 C         139.7293  140.7642  167.0976 C.ar    1  UNL1        0.1479
     14 C         139.0289  139.4830  167.4411 C.ar    1  UNL1        0.0374
     15 C         138.2024  138.7792  166.4060 C.ar    1  UNL1        0.0046
     16 C         138.0762  139.3567  165.0274 C.ar    1  UNL1        0.0191
     17 C         138.7765  140.6379  164.6839 C.ar    1  UNL1        0.0815
     18 N         139.6030  141.3416  165.7190 N.ar    1  UNL1       -0.2874
     19 C         143.6947  141.7266  160.9198 C.ar    1  UNL1        0.1522
     20 C         143.7784  140.6290  159.9007 C.ar    1  UNL1        0.0427
     21 C         143.3761  140.8925  158.4799 C.ar    1  UNL1        0.0567
     22 C         142.8903  142.2536  158.0781 C.ar    1  UNL1        0.0060
     23 C         142.8067  143.3511  159.0971 C.ar    1  UNL1        0.0179
     24 C         143.2089  143.0876  160.5180 C.ar    1  UNL1        0.0849
     25 C         143.4598  139.7950  157.4609 C.2     1  UNL1        0.2493
     26 O         144.7360  139.5680  156.7061 O.2     1  UNL1       -0.2699
     27 N         142.2672  138.9244  157.1968 N.am    1  UNL1       -0.2709
     28 C         140.9910  139.1514  157.9517 C.3     1  UNL1        0.1258
     29 C         139.7984  138.2807  157.6875 C.3     1  UNL1        0.1637
     30 O         139.8819  137.1831  156.6686 O.3     1  UNL1       -0.3501
     31 C         141.1581  136.9561  155.9137 C.3     1  UNL1        0.1637
     32 C         142.3507  137.8267  156.1778 C.3     1  UNL1        0.1258
     33 C         145.4792  141.8134  162.8061 C.3     1  UNL1        0.2525
     34 O         144.0970  141.4630  162.3407 O.3     1  UNL1       -0.4702
@<TRIPOS>BOND
     1    33    34    1
     2    34    19    1
     3    19    20   ar
     4    20    21   ar
     5    21    25    1
     6    25    26    2
     7    25    27   am
     8    27    28    1
     9    28    29    1
    10    29    30    1
    11    30    31    1
    12    31    32    1
    13    21    22   ar
    14    22    23   ar
    15    23    24   ar
    16    24     1    1
    17     1     3    1
    18     3     4   ar
    19     4     5   ar
    20     5     6   ar
    21     6     7    1
    22     6     8   ar
    23     8    10    1
    24    10    11   ar
    25    11    12   ar
    26    12    13   ar
    27    13    14   ar
    28    14    15   ar
    29    15    16   ar
    30    16    17   ar
    31    17    18   ar
    32     8     9   ar
    33    24    19   ar
    34     9     3   ar
    35    32    27    1
    36    18    10   ar
    37    18    13   ar
    38     1     2    1
