@<TRIPOS>MOLECULE
*****
 35 38 0 0 0
SMALL
GASTEIGER

@<TRIPOS>ATOM
      1 C         142.6304  138.6439  159.0935 C.ar    1  UNL1        0.1473
      2 C         143.3681  139.2872  160.2301 C.ar    1  UNL1        0.0390
      3 C         142.6423  139.6284  161.4977 C.ar    1  UNL1        0.0208
      4 C         141.1789  139.3261  161.6287 C.ar    1  UNL1        0.0683
      5 C         140.4413  138.6828  160.4921 C.ar    1  UNL1        0.0208
      6 C         139.0113  138.5054  160.9088 C.ar    1  UNL1        0.0207
      7 C         138.8652  139.0391  162.3030 C.ar    1  UNL1        0.0842
      8 N         140.2048  139.5464  162.7480 N.ar    1  UNL1       -0.2609
      9 C         140.5158  140.1652  164.0785 C.2     1  UNL1        0.3237
     10 O         141.9097  140.6283  164.3829 O.2     1  UNL1       -0.2489
     11 N         139.4329  140.3209  165.1047 N.am    1  UNL1       -0.2657
     12 C         141.1670  138.3417  159.2245 C.ar    1  UNL1        0.0390
     13 H         138.5180  140.0170  164.9049 H       1  UNL1        0.1566
     14 C         139.7438  140.9397  166.4352 C.ar    1  UNL1        0.0518
     15 C         140.2481  142.3506  166.5066 C.ar    1  UNL1        0.0170
     16 C         140.5590  142.9695  167.8371 C.ar    1  UNL1        0.0309
     17 C         140.3656  142.1775  169.0962 C.ar    1  UNL1        0.1441
     18 F         140.6765  142.7964  170.4269 F       1  UNL1       -0.2042
     19 C         139.8613  140.7666  169.0248 C.ar    1  UNL1        0.1000
     20 C         139.5504  140.1477  167.6943 C.ar    1  UNL1        0.0208
     21 C         139.6680  139.9746  170.2839 C.3     1  UNL1        0.4207
     22 F         139.4745  139.1826  171.5431 F       1  UNL1       -0.1658
     23 F         138.1904  140.2231  170.2133 F       1  UNL1       -0.1658
     24 F         141.1455  139.7262  170.3545 F       1  UNL1       -0.1658
     25 O         143.3562  138.3027  157.8258 O.3     1  UNL1       -0.4360
     26 C         142.3698  134.8534  156.1290 C.ar    1  UNL1        0.0813
     27 C         142.9612  135.8429  157.0888 C.ar    1  UNL1        0.0742
     28 C         142.7648  137.3132  156.8661 C.ar    1  UNL1        0.2323
     29 N         141.9770  137.7940  155.6835 N.ar    1  UNL1       -0.1890
     30 C         141.3857  136.8045  154.7238 C.ar    1  UNL1        0.2012
     31 N         141.5820  135.3342  154.9465 N.ar    1  UNL1       -0.2268
     32 C         142.5661  133.3831  156.3517 C.3     1  UNL1        0.1154
     33 C         144.5974  132.6246  157.7830 C.3     1  UNL1        0.0862
     34 N         143.1268  132.8899  157.6527 N.3     1  UNL1       -0.2913
     35 H         142.8896  133.5868  158.3586 H       1  UNL1        0.1236
@<TRIPOS>BOND
     1    33    34    1
     2    34    32    1
     3    32    26    1
     4    26    27   ar
     5    27    28   ar
     6    28    25    1
     7    25     1    1
     8     1     2   ar
     9     2     3   ar
    10     3     4   ar
    11     4     5   ar
    12     5     6   ar
    13     6     7   ar
    14     7     8   ar
    15     8     9   am
    16     9    10    2
    17     9    11   am
    18    11    14    1
    19    14    15   ar
    20    15    16   ar
    21    16    17   ar
    22    17    18    1
    23    17    19   ar
    24    19    21    1
    25    21    22    1
    26    21    23    1
    27    21    24    1
    28    19    20   ar
    29     5    12   ar
    30    28    29   ar
    31    29    30   ar
    32    30    31   ar
    33    31    26   ar
    34    12     1   ar
    35     8     4   ar
    36    20    14   ar
    37    34    35    1
    38    11    13    1
@<TRIPOS>MOLECULE
*****
 35 38 0 0 0
SMALL
GASTEIGER

@<TRIPOS>ATOM
      1 C         142.6288  138.2322  158.5311 C.ar    1  UNL1        0.1473
      2 C         142.9133  137.7118  159.9088 C.ar    1  UNL1        0.0390
      3 C         142.2592  138.3464  161.1002 C.ar    1  UNL1        0.0208
      4 C         141.3205  139.5015  160.9138 C.ar    1  UNL1        0.0683
      5 C         141.0360  140.0219  159.5360 C.ar    1  UNL1        0.0208
      6 C         140.0735  141.1654  159.6621 C.ar    1  UNL1        0.0207
      7 C         139.7631  141.3518  161.1178 C.ar    1  UNL1        0.0842
      8 N         140.5338  140.3234  161.8914 N.ar    1  UNL1       -0.2609
      9 C         140.5203  140.1477  163.3810 C.2     1  UNL1        0.3237
     10 O         141.3471  139.0696  164.0166 O.2     1  UNL1       -0.2489
     11 N         139.6799  141.0502  164.2350 N.am    1  UNL1       -0.2657
     12 C         141.6901  139.3873  158.3447 C.ar    1  UNL1        0.0390
     13 H         139.1373  141.7579  163.8178 H       1  UNL1        0.1566
     14 C         139.6663  140.8746  165.7246 C.ar    1  UNL1        0.0518
     15 C         138.8976  139.7427  166.3393 C.ar    1  UNL1        0.0170
     16 C         138.8840  139.5670  167.8289 C.ar    1  UNL1        0.0309
     17 C         139.6390  140.5233  168.7038 C.ar    1  UNL1        0.1441
     18 F         139.6254  140.3477  170.1935 F       1  UNL1       -0.2042
     19 C         140.4077  141.6552  168.0891 C.ar    1  UNL1        0.1000
     20 C         140.4213  141.8309  166.5995 C.ar    1  UNL1        0.0208
     21 C         141.1627  142.6115  168.9640 C.3     1  UNL1        0.4207
     22 F         141.9178  143.5678  169.8390 F       1  UNL1       -0.1658
     23 F         142.2236  141.5739  169.1826 F       1  UNL1       -0.1658
     24 F         140.1018  143.6491  168.7454 F       1  UNL1       -0.1658
     25 O         143.2829  137.5976  157.3397 O.3     1  UNL1       -0.4360
     26 C         142.5297  133.8272  156.3560 C.ar    1  UNL1        0.0813
     27 C         143.1573  135.0239  157.0075 C.ar    1  UNL1        0.0742
     28 C         142.6554  136.4010  156.6883 C.ar    1  UNL1        0.2323
     29 N         141.5260  136.5814  155.7177 N.ar    1  UNL1       -0.1890
     30 C         140.8986  135.3848  155.0663 C.ar    1  UNL1        0.2012
     31 N         141.4004  134.0077  155.3855 N.ar    1  UNL1       -0.2268
     32 C         143.0316  132.4502  156.6752 C.3     1  UNL1        0.1154
     33 C         145.3088  131.9066  157.8018 C.3     1  UNL1        0.0862
     34 N         143.8454  132.2168  157.9135 N.3     1  UNL1       -0.2913
     35 H         143.7658  133.0603  158.4815 H       1  UNL1        0.1236
@<TRIPOS>BOND
     1    33    34    1
     2    34    32    1
     3    32    26    1
     4    26    27   ar
     5    27    28   ar
     6    28    25    1
     7    25     1    1
     8     1     2   ar
     9     2     3   ar
    10     3     4   ar
    11     4     5   ar
    12     5     6   ar
    13     6     7   ar
    14     7     8   ar
    15     8     9   am
    16     9    10    2
    17     9    11   am
    18    11    14    1
    19    14    15   ar
    20    15    16   ar
    21    16    17   ar
    22    17    18    1
    23    17    19   ar
    24    19    21    1
    25    21    22    1
    26    21    23    1
    27    21    24    1
    28    19    20   ar
    29     5    12   ar
    30    28    29   ar
    31    29    30   ar
    32    30    31   ar
    33    31    26   ar
    34    12     1   ar
    35     8     4   ar
    36    20    14   ar
    37    34    35    1
    38    11    13    1
@<TRIPOS>MOLECULE
*****
 35 38 0 0 0
SMALL
GASTEIGER

@<TRIPOS>ATOM
      1 C         141.1354  139.0355  158.9050 C.ar    1  UNL1        0.1473
      2 C         142.1373  139.6797  159.8166 C.ar    1  UNL1        0.0390
      3 C         141.8676  139.7606  161.2899 C.ar    1  UNL1        0.0208
      4 C         140.5960  139.1973  161.8517 C.ar    1  UNL1        0.0683
      5 C         139.5940  138.5531  160.9401 C.ar    1  UNL1        0.0208
      6 C         138.4381  138.0891  161.7759 C.ar    1  UNL1        0.0207
      7 C         138.7256  138.4466  163.2040 C.ar    1  UNL1        0.0842
      8 N         140.0593  139.1315  163.2509 N.ar    1  UNL1       -0.2609
      9 C         140.7373  139.6581  164.4809 C.2     1  UNL1        0.3237
     10 O         142.0773  140.3232  164.3721 O.2     1  UNL1       -0.2489
     11 N         140.0751  139.5196  165.8197 N.am    1  UNL1       -0.2657
     12 C         139.8637  138.4722  159.4668 C.ar    1  UNL1        0.0390
     13 H         139.1956  139.0831  165.8911 H       1  UNL1        0.1566
     14 C         140.7530  140.0462  167.0498 C.ar    1  UNL1        0.0518
     15 C         142.0766  139.4835  167.4757 C.ar    1  UNL1        0.0170
     16 C         142.7546  140.0100  168.7058 C.ar    1  UNL1        0.0309
     17 C         142.1090  141.0993  169.5099 C.ar    1  UNL1        0.1441
     18 F         142.7869  141.6259  170.7401 F       1  UNL1       -0.2042
     19 C         140.7854  141.6620  169.0840 C.ar    1  UNL1        0.1000
     20 C         140.1074  141.1355  167.8539 C.ar    1  UNL1        0.0208
     21 C         140.1397  142.7513  169.8881 C.3     1  UNL1        0.4207
     22 F         139.4940  143.8406  170.6923 F       1  UNL1       -0.1658
     23 F         139.0671  141.7962  170.3207 F       1  UNL1       -0.1658
     24 F         141.2124  143.7064  169.4556 F       1  UNL1       -0.1658
     25 O         141.4050  138.9546  157.4317 O.3     1  UNL1       -0.4360
     26 C         142.5484  135.2624  156.5317 C.ar    1  UNL1        0.0813
     27 C         142.4779  136.5989  157.2090 C.ar    1  UNL1        0.0742
     28 C         141.4756  137.6181  156.7544 C.ar    1  UNL1        0.2323
     29 N         140.5438  137.3007  155.6225 N.ar    1  UNL1       -0.1890
     30 C         140.6143  135.9642  154.9452 C.ar    1  UNL1        0.2012
     31 N         141.6166  134.9450  155.3998 N.ar    1  UNL1       -0.2268
     32 C         143.5507  134.2432  156.9862 C.3     1  UNL1        0.1154
     33 C         143.0840  131.6880  156.9265 C.3     1  UNL1        0.0862
     34 N         143.0891  132.9905  157.6704 N.3     1  UNL1       -0.2913
     35 H         143.6890  132.8619  158.4852 H       1  UNL1        0.1236
@<TRIPOS>BOND
     1    33    34    1
     2    34    32    1
     3    32    26    1
     4    26    27   ar
     5    27    28   ar
     6    28    25    1
     7    25     1    1
     8     1     2   ar
     9     2     3   ar
    10     3     4   ar
    11     4     5   ar
    12     5     6   ar
    13     6     7   ar
    14     7     8   ar
    15     8     9   am
    16     9    10    2
    17     9    11   am
    18    11    14    1
    19    14    15   ar
    20    15    16   ar
    21    16    17   ar
    22    17    18    1
    23    17    19   ar
    24    19    21    1
    25    21    22    1
    26    21    23    1
    27    21    24    1
    28    19    20   ar
    29     5    12   ar
    30    28    29   ar
    31    29    30   ar
    32    30    31   ar
    33    31    26   ar
    34    12     1   ar
    35     8     4   ar
    36    20    14   ar
    37    34    35    1
    38    11    13    1
@<TRIPOS>MOLECULE
*****
 35 38 0 0 0
SMALL
GASTEIGER

@<TRIPOS>ATOM
      1 C         142.2206  139.9128  159.1709 C.ar    1  UNL1        0.1473
      2 C         141.2753  139.4302  160.2307 C.ar    1  UNL1        0.0390
      3 C         141.5343  139.7563  161.6717 C.ar    1  UNL1        0.0208
      4 C         142.7388  140.5650  162.0528 C.ar    1  UNL1        0.0683
      5 C         143.6842  141.0476  160.9930 C.ar    1  UNL1        0.0208
      6 C         144.7799  141.8198  161.6661 C.ar    1  UNL1        0.0207
      7 C         144.5117  141.8145  163.1419 C.ar    1  UNL1        0.0842
      8 N         143.2502  141.0390  163.3810 N.ar    1  UNL1       -0.2609
      9 C         142.6122  140.7825  164.7140 C.2     1  UNL1        0.3237
     10 O         141.3442  139.9854  164.7977 O.2     1  UNL1       -0.2489
     11 N         143.2421  141.3230  165.9634 N.am    1  UNL1       -0.2657
     12 C         143.4251  140.7215  159.5520 C.ar    1  UNL1        0.0390
     13 H         144.0743  141.8461  165.9085 H       1  UNL1        0.1566
     14 C         142.6041  141.0665  167.2965 C.ar    1  UNL1        0.0518
     15 C         142.7353  139.7198  167.9440 C.ar    1  UNL1        0.0170
     16 C         142.0974  139.4632  169.2771 C.ar    1  UNL1        0.0309
     17 C         141.3283  140.5534  169.9627 C.ar    1  UNL1        0.1441
     18 F         140.6903  140.2969  171.2959 F       1  UNL1       -0.2042
     19 C         141.1971  141.9000  169.3153 C.ar    1  UNL1        0.1000
     20 C         141.8350  142.1566  167.9822 C.ar    1  UNL1        0.0208
     21 C         140.4280  142.9902  170.0009 C.3     1  UNL1        0.4207
     22 F         139.6589  144.0804  170.6865 F       1  UNL1       -0.1658
     23 F         141.6609  143.8441  170.0262 F       1  UNL1       -0.1658
     24 F         139.1950  142.1362  169.9756 F       1  UNL1       -0.1658
     25 O         141.9616  139.5867  157.7298 O.3     1  UNL1       -0.4360
     26 C         143.2754  136.0031  156.6426 C.ar    1  UNL1        0.0813
     27 C         142.4747  137.0721  157.3254 C.ar    1  UNL1        0.0742
     28 C         142.7623  138.5177  157.0471 C.ar    1  UNL1        0.2323
     29 N         143.8507  138.8944  156.0860 N.ar    1  UNL1       -0.1890
     30 C         144.6514  137.8254  155.4033 C.ar    1  UNL1        0.2012
     31 N         144.3638  136.3798  155.6816 N.ar    1  UNL1       -0.2268
     32 C         142.9878  134.5575  156.9209 C.3     1  UNL1        0.1154
     33 C         144.7089  132.8445  157.8448 C.3     1  UNL1        0.0862
     34 N         143.6432  133.8727  158.0835 N.3     1  UNL1       -0.2913
     35 H         144.0629  134.6040  158.6575 H       1  UNL1        0.1236
@<TRIPOS>BOND
     1    33    34    1
     2    34    32    1
     3    32    26    1
     4    26    27   ar
     5    27    28   ar
     6    28    25    1
     7    25     1    1
     8     1     2   ar
     9     2     3   ar
    10     3     4   ar
    11     4     5   ar
    12     5     6   ar
    13     6     7   ar
    14     7     8   ar
    15     8     9   am
    16     9    10    2
    17     9    11   am
    18    11    14    1
    19    14    15   ar
    20    15    16   ar
    21    16    17   ar
    22    17    18    1
    23    17    19   ar
    24    19    21    1
    25    21    22    1
    26    21    23    1
    27    21    24    1
    28    19    20   ar
    29     5    12   ar
    30    28    29   ar
    31    29    30   ar
    32    30    31   ar
    33    31    26   ar
    34    12     1   ar
    35     8     4   ar
    36    20    14   ar
    37    34    35    1
    38    11    13    1
@<TRIPOS>MOLECULE
*****
 35 38 0 0 0
SMALL
GASTEIGER

@<TRIPOS>ATOM
      1 C         138.4703  141.6358  159.4603 C.ar    1  UNL1        0.1473
      2 C         138.5446  142.5744  160.6279 C.ar    1  UNL1        0.0390
      3 C         138.9035  142.0529  161.9877 C.ar    1  UNL1        0.0208
      4 C         139.1882  140.5927  162.1799 C.ar    1  UNL1        0.0683
      5 C         139.1139  139.6541  161.0122 C.ar    1  UNL1        0.0208
      6 C         139.4444  138.2760  161.5036 C.ar    1  UNL1        0.0207
      7 C         139.7229  138.3628  162.9750 C.ar    1  UNL1        0.0842
      8 N         139.5646  139.7946  163.3930 N.ar    1  UNL1       -0.2609
      9 C         139.7500  140.3338  164.7804 C.2     1  UNL1        0.3237
     10 O         139.5565  141.7969  165.0485 O.2     1  UNL1       -0.2489
     11 N         140.1289  139.4098  165.8996 N.am    1  UNL1       -0.2657
     12 C         138.7550  140.1757  159.6524 C.ar    1  UNL1        0.0390
     13 H         140.2559  138.4495  165.7236 H       1  UNL1        0.1566
     14 C         140.3144  139.9489  167.2870 C.ar    1  UNL1        0.0518
     15 C         139.1766  139.9129  168.2638 C.ar    1  UNL1        0.0170
     16 C         139.3620  140.4519  169.6513 C.ar    1  UNL1        0.0309
     17 C         140.6852  141.0269  170.0619 C.ar    1  UNL1        0.1441
     18 F         140.8707  141.5660  171.4494 F       1  UNL1       -0.2042
     19 C         141.8229  141.0629  169.0851 C.ar    1  UNL1        0.1000
     20 C         141.6376  140.5239  167.6976 C.ar    1  UNL1        0.0208
     21 C         143.1461  141.6379  169.4957 C.3     1  UNL1        0.4207
     22 F         144.4693  142.2129  169.9063 F       1  UNL1       -0.1658
     23 F         142.8710  142.8600  168.6707 F       1  UNL1       -0.1658
     24 F         143.4211  140.4157  170.3207 F       1  UNL1       -0.1658
     25 O         138.1114  142.1573  158.1004 O.3     1  UNL1       -0.4360
     26 C         135.7757  139.9610  155.7613 C.ar    1  UNL1        0.0813
     27 C         136.2145  140.9102  156.8368 C.ar    1  UNL1        0.0742
     28 C         137.6725  141.2082  157.0249 C.ar    1  UNL1        0.2323
     29 N         138.6917  140.5572  156.1375 N.ar    1  UNL1       -0.1890
     30 C         138.2529  139.6081  155.0621 C.ar    1  UNL1        0.2012
     31 N         136.7949  139.3100  154.8740 N.ar    1  UNL1       -0.2268
     32 C         134.3177  139.6630  155.5732 C.3     1  UNL1        0.1154
     33 C         133.0903  139.0964  157.7920 C.3     1  UNL1        0.0862
     34 N         133.6352  138.6660  156.4623 N.3     1  UNL1       -0.2913
     35 H         132.8511  138.2865  155.9317 H       1  UNL1        0.1236
@<TRIPOS>BOND
     1    33    34    1
     2    34    32    1
     3    32    26    1
     4    26    27   ar
     5    27    28   ar
     6    28    25    1
     7    25     1    1
     8     1     2   ar
     9     2     3   ar
    10     3     4   ar
    11     4     5   ar
    12     5     6   ar
    13     6     7   ar
    14     7     8   ar
    15     8     9   am
    16     9    10    2
    17     9    11   am
    18    11    14    1
    19    14    15   ar
    20    15    16   ar
    21    16    17   ar
    22    17    18    1
    23    17    19   ar
    24    19    21    1
    25    21    22    1
    26    21    23    1
    27    21    24    1
    28    19    20   ar
    29     5    12   ar
    30    28    29   ar
    31    29    30   ar
    32    30    31   ar
    33    31    26   ar
    34    12     1   ar
    35     8     4   ar
    36    20    14   ar
    37    34    35    1
    38    11    13    1
@<TRIPOS>MOLECULE
*****
 35 38 0 0 0
SMALL
GASTEIGER

@<TRIPOS>ATOM
      1 C         138.4554  139.7345  165.0585 C.ar    1  UNL1        0.1473
      2 C         138.1171  141.0990  164.5352 C.ar    1  UNL1        0.0390
      3 C         138.1507  141.3659  163.0596 C.ar    1  UNL1        0.0208
      4 C         138.5227  140.2684  162.1072 C.ar    1  UNL1        0.0683
      5 C         138.8609  138.9039  162.6304 C.ar    1  UNL1        0.0208
      6 C         139.1882  138.0263  161.4588 C.ar    1  UNL1        0.0207
      7 C         139.0521  138.8483  160.2115 C.ar    1  UNL1        0.0842
      8 N         138.6408  140.2340  160.6122 N.ar    1  UNL1       -0.2609
      9 C         138.3914  141.3835  159.6814 C.2     1  UNL1        0.3237
     10 O         137.9834  142.7184  160.2306 O.2     1  UNL1       -0.2489
     11 N         138.5501  141.1982  158.2014 N.am    1  UNL1       -0.2657
     12 C         138.8273  138.6370  164.1060 C.ar    1  UNL1        0.0390
     13 H         138.8180  140.3220  157.8409 H       1  UNL1        0.1566
     14 C         138.3008  142.3476  157.2705 C.ar    1  UNL1        0.0518
     15 C         137.0159  142.4237  156.5002 C.ar    1  UNL1        0.0170
     16 C         136.7665  143.5731  155.5693 C.ar    1  UNL1        0.0309
     17 C         137.8019  144.6464  155.4087 C.ar    1  UNL1        0.1441
     18 F         137.5525  145.7960  154.4778 F       1  UNL1       -0.2042
     19 C         139.0868  144.5703  156.1790 C.ar    1  UNL1        0.1000
     20 C         139.3362  143.4209  157.1099 C.ar    1  UNL1        0.0208
     21 C         140.1222  145.6437  156.0183 C.3     1  UNL1        0.4207
     22 F         141.1577  146.7171  155.8577 F       1  UNL1       -0.1658
     23 F         139.2285  146.6129  156.7337 F       1  UNL1       -0.1658
     24 F         141.0159  144.6744  155.3029 F       1  UNL1       -0.1658
     25 O         138.4217  139.4676  166.5342 O.3     1  UNL1       -0.4360
     26 C         140.7512  140.2724  169.6448 C.ar    1  UNL1        0.0813
     27 C         139.5217  140.0511  168.8144 C.ar    1  UNL1        0.0742
     28 C         139.6511  139.6888  167.3646 C.ar    1  UNL1        0.2323
     29 N         141.0100  139.5477  166.7452 N.ar    1  UNL1       -0.1890
     30 C         142.2394  139.7689  167.5756 C.ar    1  UNL1        0.2012
     31 N         142.1100  140.1312  169.0254 N.ar    1  UNL1       -0.2268
     32 C         140.6218  140.6347  171.0946 C.3     1  UNL1        0.1154
     33 C         139.6754  143.0434  170.8657 C.3     1  UNL1        0.0862
     34 N         140.6231  142.0759  171.5105 N.3     1  UNL1       -0.2913
     35 H         140.4266  142.0938  172.5112 H       1  UNL1        0.1236
@<TRIPOS>BOND
     1    33    34    1
     2    34    32    1
     3    32    26    1
     4    26    27   ar
     5    27    28   ar
     6    28    25    1
     7    25     1    1
     8     1     2   ar
     9     2     3   ar
    10     3     4   ar
    11     4     5   ar
    12     5     6   ar
    13     6     7   ar
    14     7     8   ar
    15     8     9   am
    16     9    10    2
    17     9    11   am
    18    11    14    1
    19    14    15   ar
    20    15    16   ar
    21    16    17   ar
    22    17    18    1
    23    17    19   ar
    24    19    21    1
    25    21    22    1
    26    21    23    1
    27    21    24    1
    28    19    20   ar
    29     5    12   ar
    30    28    29   ar
    31    29    30   ar
    32    30    31   ar
    33    31    26   ar
    34    12     1   ar
    35     8     4   ar
    36    20    14   ar
    37    34    35    1
    38    11    13    1
@<TRIPOS>MOLECULE
*****
 35 38 0 0 0
SMALL
GASTEIGER

@<TRIPOS>ATOM
      1 C         142.9970  138.3652  160.0421 C.ar    1  UNL1        0.1473
      2 C         142.1018  137.8571  161.1331 C.ar    1  UNL1        0.0390
      3 C         142.1746  138.4598  162.5047 C.ar    1  UNL1        0.0208
      4 C         143.1426  139.5708  162.7853 C.ar    1  UNL1        0.0683
      5 C         144.0378  140.0790  161.6943 C.ar    1  UNL1        0.0208
      6 C         144.8859  141.1770  162.2644 C.ar    1  UNL1        0.0207
      7 C         144.5149  141.3474  163.7078 C.ar    1  UNL1        0.0842
      8 N         143.4375  140.3548  164.0297 N.ar    1  UNL1       -0.2609
      9 C         142.7718  140.1772  165.3621 C.2     1  UNL1        0.3237
     10 O         141.7044  139.1374  165.5346 O.2     1  UNL1       -0.2489
     11 N         143.1734  141.0393  166.5220 N.am    1  UNL1       -0.2657
     12 C         143.9650  139.4762  160.3227 C.ar    1  UNL1        0.0390
     13 H         143.8740  141.7217  166.4088 H       1  UNL1        0.1566
     14 C         142.5078  140.8618  167.8544 C.ar    1  UNL1        0.0518
     15 C         142.6752  139.5775  168.6112 C.ar    1  UNL1        0.0170
     16 C         142.0096  139.3999  169.9436 C.ar    1  UNL1        0.0309
     17 C         141.1766  140.5065  170.5193 C.ar    1  UNL1        0.1441
     18 F         140.5109  140.3290  171.8518 F       1  UNL1       -0.2042
     19 C         141.0092  141.7908  169.7626 C.ar    1  UNL1        0.1000
     20 C         141.6748  141.9684  168.4301 C.ar    1  UNL1        0.0208
     21 C         140.1762  142.8975  170.3383 C.3     1  UNL1        0.4207
     22 F         139.3432  144.0041  170.9140 F       1  UNL1       -0.1658
     23 F         138.9815  141.9906  170.3529 F       1  UNL1       -0.1658
     24 F         141.3710  143.8043  170.3237 F       1  UNL1       -0.1658
     25 O         142.9242  137.7625  158.6704 O.3     1  UNL1       -0.4360
     26 C         139.5737  139.2968  157.1973 C.ar    1  UNL1        0.0813
     27 C         140.8160  139.1356  158.0225 C.ar    1  UNL1        0.0742
     28 C         141.6820  137.9237  157.8453 C.ar    1  UNL1        0.2323
     29 N         141.3057  136.8730  156.8430 N.ar    1  UNL1       -0.1890
     30 C         140.0635  137.0343  156.0178 C.ar    1  UNL1        0.2012
     31 N         139.1975  138.2462  156.1950 N.ar    1  UNL1       -0.2268
     32 C         138.7077  140.5087  157.3744 C.3     1  UNL1        0.1154
     33 C         136.3233  141.0481  156.4948 C.3     1  UNL1        0.0862
     34 N         137.2190  140.3577  157.4802 N.3     1  UNL1       -0.2913
     35 H         137.0186  139.3600  157.4116 H       1  UNL1        0.1236
@<TRIPOS>BOND
     1    33    34    1
     2    34    32    1
     3    32    26    1
     4    26    27   ar
     5    27    28   ar
     6    28    25    1
     7    25     1    1
     8     1     2   ar
     9     2     3   ar
    10     3     4   ar
    11     4     5   ar
    12     5     6   ar
    13     6     7   ar
    14     7     8   ar
    15     8     9   am
    16     9    10    2
    17     9    11   am
    18    11    14    1
    19    14    15   ar
    20    15    16   ar
    21    16    17   ar
    22    17    18    1
    23    17    19   ar
    24    19    21    1
    25    21    22    1
    26    21    23    1
    27    21    24    1
    28    19    20   ar
    29     5    12   ar
    30    28    29   ar
    31    29    30   ar
    32    30    31   ar
    33    31    26   ar
    34    12     1   ar
    35     8     4   ar
    36    20    14   ar
    37    34    35    1
    38    11    13    1
@<TRIPOS>MOLECULE
*****
 35 38 0 0 0
SMALL
GASTEIGER

@<TRIPOS>ATOM
      1 C         143.3847  143.2365  164.8099 C.ar    1  UNL1        0.1473
      2 C         142.0748  143.8246  164.3762 C.ar    1  UNL1        0.0390
      3 C         141.7502  143.9377  162.9162 C.ar    1  UNL1        0.0208
      4 C         142.7355  143.4626  161.8898 C.ar    1  UNL1        0.0683
      5 C         144.0455  142.8745  162.3235 C.ar    1  UNL1        0.0208
      6 C         144.8131  142.4941  161.0922 C.ar    1  UNL1        0.0207
      7 C         143.9775  142.8470  159.8975 C.ar    1  UNL1        0.0842
      8 N         142.6935  143.4456  160.3904 N.ar    1  UNL1       -0.2609
      9 C         141.5655  143.9404  159.5344 C.2     1  UNL1        0.3237
     10 O         140.3368  144.5173  160.1727 O.2     1  UNL1       -0.2489
     11 N         141.6663  143.8582  158.0400 N.am    1  UNL1       -0.2657
     12 C         144.3701  142.7615  163.7835 C.ar    1  UNL1        0.0390
     13 H         142.4727  143.4796  157.6211 H       1  UNL1        0.1566
     14 C         140.5383  144.3530  157.1839 C.ar    1  UNL1        0.0518
     15 C         139.5127  143.3895  156.6645 C.ar    1  UNL1        0.0170
     16 C         138.3848  143.8841  155.8083 C.ar    1  UNL1        0.0309
     17 C         138.2824  145.3422  155.4716 C.ar    1  UNL1        0.1441
     18 F         137.1544  145.8370  154.6154 F       1  UNL1       -0.2042
     19 C         139.3080  146.3057  155.9911 C.ar    1  UNL1        0.1000
     20 C         140.4360  145.8111  156.8472 C.ar    1  UNL1        0.0208
     21 C         139.2057  147.7638  155.6544 C.3     1  UNL1        0.4207
     22 F         139.1033  149.2220  155.3176 F       1  UNL1       -0.1658
     23 F         139.7012  147.4784  154.2677 F       1  UNL1       -0.1658
     24 F         138.7101  148.0493  157.0411 F       1  UNL1       -0.1658
     25 O         143.7094  143.1234  166.2700 O.3     1  UNL1       -0.4360
     26 C         142.3674  141.0636  169.3855 C.ar    1  UNL1        0.0813
     27 C         142.9598  142.1740  168.5693 C.ar    1  UNL1        0.0742
     28 C         143.1170  142.0131  167.0863 C.ar    1  UNL1        0.2323
     29 N         142.6819  140.7418  166.4195 N.ar    1  UNL1       -0.1890
     30 C         142.0895  139.6315  167.2357 C.ar    1  UNL1        0.2012
     31 N         141.9323  139.7924  168.7187 N.ar    1  UNL1       -0.2268
     32 C         142.2102  141.2245  170.8686 C.3     1  UNL1        0.1154
     33 C         140.0225  142.6094  170.6534 C.3     1  UNL1        0.0862
     34 N         141.2642  142.2523  171.4154 N.3     1  UNL1       -0.2913
     35 H         140.9622  141.9173  172.3302 H       1  UNL1        0.1236
@<TRIPOS>BOND
     1    33    34    1
     2    34    32    1
     3    32    26    1
     4    26    27   ar
     5    27    28   ar
     6    28    25    1
     7    25     1    1
     8     1     2   ar
     9     2     3   ar
    10     3     4   ar
    11     4     5   ar
    12     5     6   ar
    13     6     7   ar
    14     7     8   ar
    15     8     9   am
    16     9    10    2
    17     9    11   am
    18    11    14    1
    19    14    15   ar
    20    15    16   ar
    21    16    17   ar
    22    17    18    1
    23    17    19   ar
    24    19    21    1
    25    21    22    1
    26    21    23    1
    27    21    24    1
    28    19    20   ar
    29     5    12   ar
    30    28    29   ar
    31    29    30   ar
    32    30    31   ar
    33    31    26   ar
    34    12     1   ar
    35     8     4   ar
    36    20    14   ar
    37    34    35    1
    38    11    13    1
@<TRIPOS>MOLECULE
*****
 35 38 0 0 0
SMALL
GASTEIGER

@<TRIPOS>ATOM
      1 C         143.4907  139.8440  159.3981 C.ar    1  UNL1        0.1473
      2 C         143.4328  139.0094  160.6430 C.ar    1  UNL1        0.0390
      3 C         143.1730  139.6588  161.9699 C.ar    1  UNL1        0.0208
      4 C         142.9711  141.1429  162.0518 C.ar    1  UNL1        0.0683
      5 C         143.0290  141.9775  160.8069 C.ar    1  UNL1        0.0208
      6 C         142.7933  143.4069  161.1958 C.ar    1  UNL1        0.0207
      7 C         142.5897  143.4557  162.6811 C.ar    1  UNL1        0.0842
      8 N         142.6996  142.0564  163.2102 N.ar    1  UNL1       -0.2609
      9 C         142.5622  141.6433  164.6456 C.2     1  UNL1        0.3237
     10 O         142.6975  140.1988  165.0265 O.2     1  UNL1       -0.2489
     11 N         142.2893  142.6746  165.7001 N.am    1  UNL1       -0.2657
     12 C         143.2888  141.3281  159.4800 C.ar    1  UNL1        0.0390
     13 H         142.2005  143.6226  165.4501 H       1  UNL1        0.1566
     14 C         142.1519  142.2615  167.1355 C.ar    1  UNL1        0.0518
     15 C         143.3305  142.3541  168.0587 C.ar    1  UNL1        0.0170
     16 C         143.1931  141.9410  169.4941 C.ar    1  UNL1        0.0309
     17 C         141.8771  141.4353  170.0064 C.ar    1  UNL1        0.1441
     18 F         141.7396  141.0222  171.4418 F       1  UNL1       -0.2042
     19 C         140.6985  141.3428  169.0832 C.ar    1  UNL1        0.1000
     20 C         140.8359  141.7558  167.6477 C.ar    1  UNL1        0.0208
     21 C         139.3825  140.8371  169.5954 C.3     1  UNL1        0.4207
     22 F         138.0664  140.3314  170.1077 F       1  UNL1       -0.1658
     23 F         139.5677  139.5677  168.8181 F       1  UNL1       -0.1658
     24 F         139.1973  142.1065  170.3727 F       1  UNL1       -0.1658
     25 O         143.7506  139.1946  158.0711 O.3     1  UNL1       -0.4360
     26 C         141.8791  136.1398  156.3634 C.ar    1  UNL1        0.0813
     27 C         142.9517  136.9562  157.0217 C.ar    1  UNL1        0.0742
     28 C         142.6781  138.3782  157.4128 C.ar    1  UNL1        0.2323
     29 N         141.3321  138.9839  157.1456 N.ar    1  UNL1       -0.1890
     30 C         140.2596  138.1675  156.4873 C.ar    1  UNL1        0.2012
     31 N         140.5332  136.7455  156.0962 N.ar    1  UNL1       -0.2268
     32 C         142.1527  134.7177  155.9723 C.3     1  UNL1        0.1154
     33 C         141.6660  134.3569  153.4458 C.3     1  UNL1        0.0862
     34 N         141.3482  134.0713  154.8837 N.3     1  UNL1       -0.2913
     35 H         141.4378  133.0632  155.0104 H       1  UNL1        0.1236
@<TRIPOS>BOND
     1    33    34    1
     2    34    32    1
     3    32    26    1
     4    26    27   ar
     5    27    28   ar
     6    28    25    1
     7    25     1    1
     8     1     2   ar
     9     2     3   ar
    10     3     4   ar
    11     4     5   ar
    12     5     6   ar
    13     6     7   ar
    14     7     8   ar
    15     8     9   am
    16     9    10    2
    17     9    11   am
    18    11    14    1
    19    14    15   ar
    20    15    16   ar
    21    16    17   ar
    22    17    18    1
    23    17    19   ar
    24    19    21    1
    25    21    22    1
    26    21    23    1
    27    21    24    1
    28    19    20   ar
    29     5    12   ar
    30    28    29   ar
    31    29    30   ar
    32    30    31   ar
    33    31    26   ar
    34    12     1   ar
    35     8     4   ar
    36    20    14   ar
    37    34    35    1
    38    11    13    1
