@<TRIPOS>MOLECULE
*****
 55 60 0 0 0
SMALL
GASTEIGER

@<TRIPOS>ATOM
      1 C         138.6401  142.2487  160.7823 C.3     1  UNL1        0.0724
      2 C         140.7330  139.9940  157.4981 C.3     1  UNL1        0.0840
      3 C         139.8338  141.1464  157.1616 C.3     1  UNL1        0.0376
      4 C         139.1362  141.8980  158.2563 C.3     1  UNL1        0.0738
      5 N         139.3378  141.4972  159.6876 N.3     1  UNL1       -0.2726
      6 C         140.2370  140.3447  160.0242 C.3     1  UNL1        0.0738
      7 C         140.9346  139.5931  158.9295 C.3     1  UNL1        0.0376
      8 N         141.7328  137.0772  154.9995 N.am    1  UNL1       -0.2844
      9 C         141.0352  137.8288  156.0942 C.2     1  UNL1        0.3079
     10 O         139.9421  137.1669  156.8798 O.2     1  UNL1       -0.2522
     11 N         141.4307  139.2424  156.4034 N.am    1  UNL1       -0.2448
     12 H         142.4502  137.5117  154.4839 H       1  UNL1        0.1513
     13 C         142.5237  139.9043  155.6179 C.ar    1  UNL1        0.0574
     14 C         142.2522  140.4057  154.2305 C.ar    1  UNL1        0.0151
     15 C         143.3454  141.0677  153.4450 C.ar    1  UNL1        0.0036
     16 C         144.7099  141.2281  154.0468 C.ar    1  UNL1        0.0297
     17 C         144.9814  140.7267  155.4342 C.ar    1  UNL1        0.1414
     18 F         146.3459  140.8871  156.0361 F       1  UNL1       -0.2041
     19 C         143.8883  140.0648  156.2198 C.ar    1  UNL1        0.0446
     20 C         141.3374  135.6638  154.6903 C.3     1  UNL1        0.1177
     21 C         143.3465  132.2477  156.8219 C.ar    1  UNL1        0.0684
     22 C         143.8523  133.6478  157.0057 C.ar    1  UNL1        0.0100
     23 C         143.1826  134.7865  156.2952 C.ar    1  UNL1       -0.0019
     24 C         142.0071  134.5251  155.4008 C.ar    1  UNL1       -0.0025
     25 C         141.5014  133.1250  155.2170 C.ar    1  UNL1       -0.0019
     26 C         142.1711  131.9863  155.9276 C.ar    1  UNL1        0.0100
     27 N         144.6860  129.9703  158.2430 N.1     1  UNL1       -0.1908
     28 C         144.0162  131.1090  157.5325 C.1     1  UNL1        0.1004
     29 C         139.2327  143.5195  161.3152 C.3     1  UNL1        0.0215
     30 C         140.5482  143.4893  162.0354 C.3     1  UNL1        0.0236
     31 C         139.6498  142.9560  163.1116 C.3     1  UNL1        0.0257
     32 C         140.2202  142.5814  164.4474 C.3     1  UNL1        0.0940
     33 N         141.6890  142.7401  164.7069 N.am    1  UNL1       -0.2761
     34 C         142.2594  142.3655  166.0427 C.2     1  UNL1        0.2490
     35 O         143.7282  142.5242  166.3022 O.2     1  UNL1       -0.2699
     36 C         142.5874  143.2734  163.6307 C.3     1  UNL1        0.0940
     37 C         142.0170  143.6480  162.2949 C.3     1  UNL1        0.0257
     38 C         140.9898  144.0331  160.7090 C.ar    1  UNL1       -0.0204
     39 C         140.2800  145.2095  160.1068 C.ar    1  UNL1       -0.0041
     40 C         140.7216  145.7533  158.7804 C.ar    1  UNL1        0.0020
     41 C         141.8728  145.1208  158.0562 C.ar    1  UNL1        0.0296
     42 C         142.5825  143.9444  158.6584 C.ar    1  UNL1        0.1398
     43 F         143.7338  143.3120  157.9340 F       1  UNL1       -0.2042
     44 C         142.1410  143.4006  159.9847 C.ar    1  UNL1        0.0254
     45 C         141.3609  141.8321  167.1190 C.ar    1  UNL1        0.0537
     46 C         140.6592  140.5202  166.9284 C.ar    1  UNL1        0.0045
     47 C         139.7608  139.9869  168.0046 C.ar    1  UNL1        0.0003
     48 C         139.5641  140.7656  169.2716 C.ar    1  UNL1        0.0045
     49 C         140.2658  142.0775  169.4622 C.ar    1  UNL1        0.0533
     50 C         141.1643  142.6108  168.3859 C.ar    1  UNL1        0.0090
     51 C         140.0692  142.8562  170.7290 C.2     1  UNL1        0.2427
     52 N         139.6028  144.2806  170.6690 N.am    1  UNL1       -0.3253
     53 O         140.3389  142.2106  172.0558 O.2     1  UNL1       -0.2704
     54 H         139.4257  144.7044  169.7982 H       1  UNL1        0.1453
     55 H         139.4737  144.7918  171.5005 H       1  UNL1        0.1453
@<TRIPOS>BOND
     1    27    28    3
     2    28    21    1
     3    21    22   ar
     4    22    23   ar
     5    23    24   ar
     6    24    20    1
     7    20     8    1
     8     8     9   am
     9     9    10    2
    10     9    11   am
    11    11    13    1
    12    13    14   ar
    13    14    15   ar
    14    15    16   ar
    15    16    17   ar
    16    17    18    1
    17    17    19   ar
    18    11     2    1
    19     2     3    1
    20     3     4    1
    21     4     5    1
    22     5     1    1
    23     1    29    1
    24    29    30    1
    25    30    38    1
    26    38    39   ar
    27    39    40   ar
    28    40    41   ar
    29    41    42   ar
    30    42    43    1
    31    42    44   ar
    32    30    31    1
    33    31    32    1
    34    32    33    1
    35    33    34   am
    36    34    35    2
    37    34    45    1
    38    45    46   ar
    39    46    47   ar
    40    47    48   ar
    41    48    49   ar
    42    49    51    1
    43    51    52   am
    44    51    53    2
    45    49    50   ar
    46    33    36    1
    47    36    37    1
    48     5     6    1
    49     6     7    1
    50    24    25   ar
    51    25    26   ar
    52    26    21   ar
    53    19    13   ar
    54     7     2    1
    55    37    30    1
    56    44    38   ar
    57    50    45   ar
    58     8    12    1
    59    52    54    1
    60    52    55    1
@<TRIPOS>MOLECULE
*****
 55 60 0 0 0
SMALL
GASTEIGER

@<TRIPOS>ATOM
      1 C         138.4508  141.9548  160.7782 C.3     1  UNL1        0.0724
      2 C         139.7589  139.5543  157.2038 C.3     1  UNL1        0.0840
      3 C         139.7253  138.9192  158.5622 C.3     1  UNL1        0.0376
      4 C         139.2892  139.7194  159.7537 C.3     1  UNL1        0.0738
      5 N         138.8868  141.1547  159.5867 N.3     1  UNL1       -0.2726
      6 C         138.9204  141.7899  158.2282 C.3     1  UNL1        0.0738
      7 C         139.3565  140.9897  157.0367 C.3     1  UNL1        0.0376
      8 N         141.9071  137.1672  154.8720 N.am    1  UNL1       -0.2844
      9 C         141.4711  137.9674  156.0635 C.2     1  UNL1        0.3079
     10 O         142.3111  137.9808  157.3061 O.2     1  UNL1       -0.2522
     11 N         140.1949  138.7542  156.0123 N.am    1  UNL1       -0.2448
     12 H         141.3558  137.1584  154.0564 H       1  UNL1        0.1513
     13 C         139.3549  138.7407  154.7697 C.ar    1  UNL1        0.0574
     14 C         139.5906  139.7592  153.6940 C.ar    1  UNL1        0.0151
     15 C         138.7505  139.7457  152.4513 C.ar    1  UNL1        0.0036
     16 C         137.6748  138.7138  152.2844 C.ar    1  UNL1        0.0297
     17 C         137.4391  137.6953  153.3601 C.ar    1  UNL1        0.1414
     18 F         136.3634  136.6634  153.1932 F       1  UNL1       -0.2041
     19 C         138.2791  137.7088  154.6027 C.ar    1  UNL1        0.0446
     20 C         143.1832  136.3805  154.9231 C.3     1  UNL1        0.1177
     21 C         143.1393  132.1119  156.3468 C.ar    1  UNL1        0.0684
     22 C         143.6614  133.1959  157.2425 C.ar    1  UNL1        0.0100
     23 C         143.6760  134.6187  156.7679 C.ar    1  UNL1       -0.0019
     24 C         143.1685  134.9576  155.3977 C.ar    1  UNL1       -0.0025
     25 C         142.6464  133.8736  154.5020 C.ar    1  UNL1       -0.0019
     26 C         142.6318  132.4507  154.9766 C.ar    1  UNL1        0.0100
     27 N         143.1100  129.2661  157.2959 N.1     1  UNL1       -0.1908
     28 C         143.1246  130.6890  156.8213 C.1     1  UNL1        0.1004
     29 C         139.1321  143.2516  161.1008 C.3     1  UNL1        0.0215
     30 C         140.4570  143.2481  161.8042 C.3     1  UNL1        0.0236
     31 C         139.5739  142.7495  162.9095 C.3     1  UNL1        0.0257
     32 C         140.1627  142.4209  164.2494 C.3     1  UNL1        0.0940
     33 N         141.6344  142.5910  164.4841 N.am    1  UNL1       -0.2761
     34 C         142.2232  142.2624  165.8241 C.2     1  UNL1        0.2490
     35 O         143.6949  142.4325  166.0586 O.2     1  UNL1       -0.2699
     36 C         142.5174  143.0896  163.3788 C.3     1  UNL1        0.0940
     37 C         141.9287  143.4181  162.0388 C.3     1  UNL1        0.0257
     38 C         140.8798  143.7479  160.4546 C.ar    1  UNL1       -0.0204
     39 C         141.9859  143.0583  159.7122 C.ar    1  UNL1       -0.0041
     40 C         142.4087  143.5581  158.3626 C.ar    1  UNL1        0.0020
     41 C         141.7256  144.7474  157.7555 C.ar    1  UNL1        0.0296
     42 C         140.6195  145.4371  158.4979 C.ar    1  UNL1        0.1398
     43 F         139.9365  146.6264  157.8906 F       1  UNL1       -0.2042
     44 C         140.1967  144.9372  159.8475 C.ar    1  UNL1        0.0254
     45 C         141.3401  141.7639  166.9293 C.ar    1  UNL1        0.0537
     46 C         140.6128  140.4608  166.7783 C.ar    1  UNL1        0.0045
     47 C         139.7298  139.9622  167.8836 C.ar    1  UNL1        0.0003
     48 C         139.5741  140.7668  169.1400 C.ar    1  UNL1        0.0045
     49 C         140.3014  142.0699  169.2910 C.ar    1  UNL1        0.0533
     50 C         141.1844  142.5685  168.1857 C.ar    1  UNL1        0.0090
     51 C         140.1458  142.8745  170.5473 C.2     1  UNL1        0.2427
     52 N         139.8565  144.3442  170.4656 N.am    1  UNL1       -0.3253
     53 O         140.2794  142.2096  171.8852 O.2     1  UNL1       -0.2704
     54 H         139.7688  144.7805  169.5875 H       1  UNL1        0.1453
     55 H         139.7544  144.8723  171.2902 H       1  UNL1        0.1453
@<TRIPOS>BOND
     1    27    28    3
     2    28    21    1
     3    21    22   ar
     4    22    23   ar
     5    23    24   ar
     6    24    20    1
     7    20     8    1
     8     8     9   am
     9     9    10    2
    10     9    11   am
    11    11    13    1
    12    13    14   ar
    13    14    15   ar
    14    15    16   ar
    15    16    17   ar
    16    17    18    1
    17    17    19   ar
    18    11     2    1
    19     2     3    1
    20     3     4    1
    21     4     5    1
    22     5     1    1
    23     1    29    1
    24    29    30    1
    25    30    38    1
    26    38    39   ar
    27    39    40   ar
    28    40    41   ar
    29    41    42   ar
    30    42    43    1
    31    42    44   ar
    32    30    31    1
    33    31    32    1
    34    32    33    1
    35    33    34   am
    36    34    35    2
    37    34    45    1
    38    45    46   ar
    39    46    47   ar
    40    47    48   ar
    41    48    49   ar
    42    49    51    1
    43    51    52   am
    44    51    53    2
    45    49    50   ar
    46    33    36    1
    47    36    37    1
    48     5     6    1
    49     6     7    1
    50    24    25   ar
    51    25    26   ar
    52    26    21   ar
    53    19    13   ar
    54     7     2    1
    55    37    30    1
    56    44    38   ar
    57    50    45   ar
    58     8    12    1
    59    52    54    1
    60    52    55    1
@<TRIPOS>MOLECULE
*****
 55 60 0 0 0
SMALL
GASTEIGER

@<TRIPOS>ATOM
      1 C         141.8198  146.2474  156.2016 C.3     1  UNL1        0.0724
      2 C         141.9446  143.5681  159.8149 C.3     1  UNL1        0.0840
      3 C         140.9429  144.6822  159.7415 C.3     1  UNL1        0.0376
      4 C         140.9013  145.5753  158.5371 C.3     1  UNL1        0.0738
      5 N         141.8614  145.3543  157.4060 N.3     1  UNL1       -0.2726
      6 C         142.8632  144.2402  157.4794 C.3     1  UNL1        0.0738
      7 C         142.9047  143.3471  158.6838 C.3     1  UNL1        0.0376
      8 N         141.1471  140.5693  162.2890 N.am    1  UNL1       -0.2844
      9 C         141.1056  141.4624  161.0846 C.2     1  UNL1        0.3079
     10 O         140.1834  141.1429  159.9455 O.2     1  UNL1       -0.2522
     11 N         141.9862  142.6750  161.0193 N.am    1  UNL1       -0.2448
     12 H         141.7524  140.7790  163.0367 H       1  UNL1        0.1513
     13 C         142.9083  142.9944  162.1584 C.ar    1  UNL1        0.0574
     14 C         142.6163  144.1607  163.0554 C.ar    1  UNL1        0.0151
     15 C         143.5385  144.4801  164.1945 C.ar    1  UNL1        0.0036
     16 C         144.7527  143.6333  164.4366 C.ar    1  UNL1        0.0297
     17 C         145.0447  142.4670  163.5396 C.ar    1  UNL1        0.1414
     18 F         146.2589  141.6202  163.7818 F       1  UNL1       -0.2041
     19 C         144.1226  142.1476  162.4006 C.ar    1  UNL1        0.0446
     20 C         140.2666  139.3567  162.3544 C.3     1  UNL1        0.1177
     21 C         138.0224  138.4069  166.1374 C.ar    1  UNL1        0.0684
     22 C         138.0596  139.8146  165.6208 C.ar    1  UNL1        0.0100
     23 C         138.8077  140.1312  164.3598 C.ar    1  UNL1       -0.0019
     24 C         139.5185  139.0401  163.6154 C.ar    1  UNL1       -0.0025
     25 C         139.4813  137.6324  164.1320 C.ar    1  UNL1       -0.0019
     26 C         138.7332  137.3158  165.3930 C.ar    1  UNL1        0.0100
     27 N         136.5263  137.7737  168.6595 N.1     1  UNL1       -0.1908
     28 C         137.2743  138.0903  167.3984 C.1     1  UNL1        0.1004
     29 C         141.0937  145.8062  154.9655 C.3     1  UNL1        0.0215
     30 C         139.6493  145.4094  155.0455 C.3     1  UNL1        0.0236
     31 C         140.2920  144.0540  155.0409 C.3     1  UNL1        0.0257
     32 C         139.4413  142.8204  155.1083 C.3     1  UNL1        0.0940
     33 N         137.9481  142.9421  155.1802 N.am    1  UNL1       -0.2761
     34 C         137.0974  141.7084  155.2476 C.2     1  UNL1        0.2490
     35 O         135.6041  141.8302  155.3195 O.2     1  UNL1       -0.2699
     36 C         137.3054  144.2974  155.1848 C.3     1  UNL1        0.0940
     37 C         138.1561  145.5311  155.1174 C.3     1  UNL1        0.0257
     38 C         139.5083  146.9025  155.0222 C.ar    1  UNL1       -0.0204
     39 C         140.0497  147.6891  153.8653 C.ar    1  UNL1       -0.0041
     40 C         139.9087  149.1822  153.8421 C.ar    1  UNL1        0.0020
     41 C         139.2263  149.8888  154.9756 C.ar    1  UNL1        0.0296
     42 C         138.6849  149.1023  156.1325 C.ar    1  UNL1        0.1398
     43 F         138.0025  149.8090  157.2660 F       1  UNL1       -0.2042
     44 C         138.8259  147.6091  156.1558 C.ar    1  UNL1        0.0254
     45 C         137.7401  140.3531  155.2431 C.ar    1  UNL1        0.0537
     46 C         137.5218  139.4234  154.0863 C.ar    1  UNL1        0.0045
     47 C         138.1645  138.0681  154.0818 C.ar    1  UNL1        0.0003
     48 C         139.0255  137.6425  155.2341 C.ar    1  UNL1        0.0045
     49 C         139.2437  138.5721  156.3908 C.ar    1  UNL1        0.0533
     50 C         138.6010  139.9274  156.3953 C.ar    1  UNL1        0.0090
     51 C         140.1046  138.1466  157.5430 C.2     1  UNL1        0.2427
     52 N         139.6796  138.4506  158.9492 N.am    1  UNL1       -0.3253
     53 O         141.3903  137.4170  157.2894 O.2     1  UNL1       -0.2704
     54 H         138.8356  138.9295  159.1157 H       1  UNL1        0.1453
     55 H         140.2446  138.1714  159.7055 H       1  UNL1        0.1453
@<TRIPOS>BOND
     1    27    28    3
     2    28    21    1
     3    21    22   ar
     4    22    23   ar
     5    23    24   ar
     6    24    20    1
     7    20     8    1
     8     8     9   am
     9     9    10    2
    10     9    11   am
    11    11    13    1
    12    13    14   ar
    13    14    15   ar
    14    15    16   ar
    15    16    17   ar
    16    17    18    1
    17    17    19   ar
    18    11     2    1
    19     2     3    1
    20     3     4    1
    21     4     5    1
    22     5     1    1
    23     1    29    1
    24    29    30    1
    25    30    38    1
    26    38    39   ar
    27    39    40   ar
    28    40    41   ar
    29    41    42   ar
    30    42    43    1
    31    42    44   ar
    32    30    31    1
    33    31    32    1
    34    32    33    1
    35    33    34   am
    36    34    35    2
    37    34    45    1
    38    45    46   ar
    39    46    47   ar
    40    47    48   ar
    41    48    49   ar
    42    49    51    1
    43    51    52   am
    44    51    53    2
    45    49    50   ar
    46    33    36    1
    47    36    37    1
    48     5     6    1
    49     6     7    1
    50    24    25   ar
    51    25    26   ar
    52    26    21   ar
    53    19    13   ar
    54     7     2    1
    55    37    30    1
    56    44    38   ar
    57    50    45   ar
    58     8    12    1
    59    52    54    1
    60    52    55    1
@<TRIPOS>MOLECULE
*****
 55 60 0 0 0
SMALL
GASTEIGER

@<TRIPOS>ATOM
      1 C         141.8918  146.2463  156.8345 C.3     1  UNL1        0.0724
      2 C         141.3781  143.5899  160.4302 C.3     1  UNL1        0.0840
      3 C         142.4567  143.2975  159.4297 C.3     1  UNL1        0.0376
      4 C         142.6280  144.1830  158.2311 C.3     1  UNL1        0.0738
      5 N         141.7206  145.3608  158.0331 N.3     1  UNL1       -0.2726
      6 C         140.6419  145.6533  159.0336 C.3     1  UNL1        0.0738
      7 C         140.4707  144.7678  160.2322 C.3     1  UNL1        0.0376
      8 N         142.0019  141.9097  163.9711 N.am    1  UNL1       -0.2844
      9 C         142.1731  142.7952  162.7726 C.2     1  UNL1        0.3079
     10 O         143.3106  143.7715  162.7177 O.2     1  UNL1       -0.2522
     11 N         141.2069  142.7044  161.6288 N.am    1  UNL1       -0.2448
     12 H         141.2553  141.2689  164.0071 H       1  UNL1        0.1513
     13 C         140.0694  141.7281  161.6836 C.ar    1  UNL1        0.0574
     14 C         138.7662  142.1292  162.3088 C.ar    1  UNL1        0.0151
     15 C         137.6288  141.1528  162.3636 C.ar    1  UNL1        0.0036
     16 C         137.7945  139.7754  161.7933 C.ar    1  UNL1        0.0297
     17 C         139.0977  139.3743  161.1681 C.ar    1  UNL1        0.1414
     18 F         139.2634  137.9970  160.5978 F       1  UNL1       -0.2041
     19 C         140.2351  140.3506  161.1133 C.ar    1  UNL1        0.0446
     20 C         142.9681  142.0005  165.1149 C.3     1  UNL1        0.1177
     21 C         141.4408  142.1256  169.3460 C.ar    1  UNL1        0.0684
     22 C         140.4986  141.8301  168.2169 C.ar    1  UNL1        0.0100
     23 C         141.0077  141.7884  166.8066 C.ar    1  UNL1       -0.0019
     24 C         142.4590  142.0422  166.5252 C.ar    1  UNL1       -0.0025
     25 C         143.4012  142.3377  167.6543 C.ar    1  UNL1       -0.0019
     26 C         142.8922  142.3794  169.0646 C.ar    1  UNL1        0.0100
     27 N         140.4227  142.2090  172.1667 N.1     1  UNL1       -0.1908
     28 C         140.9318  142.1673  170.7563 C.1     1  UNL1        0.1004
     29 C         141.2870  145.8535  155.5193 C.3     1  UNL1        0.0215
     30 C         139.8677  145.3716  155.4605 C.3     1  UNL1        0.0236
     31 C         140.5775  144.0668  155.6698 C.3     1  UNL1        0.0257
     32 C         139.7926  142.7913  155.7547 C.3     1  UNL1        0.0940
     33 N         138.2981  142.8206  155.6303 N.am    1  UNL1       -0.2761
     34 C         137.5132  141.5452  155.7152 C.2     1  UNL1        0.2490
     35 O         136.0187  141.5746  155.5909 O.2     1  UNL1       -0.2699
     36 C         137.5884  144.1254  155.4211 C.3     1  UNL1        0.0940
     37 C         138.3732  145.4009  155.3362 C.3     1  UNL1        0.0257
     38 C         139.6510  146.8438  155.2717 C.ar    1  UNL1       -0.0204
     39 C         140.2257  147.5388  154.0730 C.ar    1  UNL1       -0.0041
     40 C         140.0089  149.0110  153.8842 C.ar    1  UNL1        0.0020
     41 C         139.2175  149.7881  154.8939 C.ar    1  UNL1        0.0296
     42 C         138.6428  149.0931  156.0926 C.ar    1  UNL1        0.1398
     43 F         137.8513  149.8703  157.1023 F       1  UNL1       -0.2042
     44 C         138.8595  147.6209  156.2814 C.ar    1  UNL1        0.0254
     45 C         138.2230  140.2404  155.9245 C.ar    1  UNL1        0.0537
     46 C         138.8302  139.9224  157.2587 C.ar    1  UNL1        0.0045
     47 C         139.5399  138.6176  157.4679 C.ar    1  UNL1        0.0003
     48 C         139.6424  137.6308  156.3429 C.ar    1  UNL1        0.0045
     49 C         139.0352  137.9487  155.0087 C.ar    1  UNL1        0.0533
     50 C         138.3254  139.2535  154.7994 C.ar    1  UNL1        0.0090
     51 C         139.1376  136.9619  153.8836 C.2     1  UNL1        0.2427
     52 N         140.3656  136.1124  153.7407 N.am    1  UNL1       -0.3253
     53 O         138.0122  136.8246  152.9016 O.2     1  UNL1       -0.2704
     54 H         141.1043  136.2025  154.3853 H       1  UNL1        0.1453
     55 H         140.4329  135.4647  153.0023 H       1  UNL1        0.1453
@<TRIPOS>BOND
     1    27    28    3
     2    28    21    1
     3    21    22   ar
     4    22    23   ar
     5    23    24   ar
     6    24    20    1
     7    20     8    1
     8     8     9   am
     9     9    10    2
    10     9    11   am
    11    11    13    1
    12    13    14   ar
    13    14    15   ar
    14    15    16   ar
    15    16    17   ar
    16    17    18    1
    17    17    19   ar
    18    11     2    1
    19     2     3    1
    20     3     4    1
    21     4     5    1
    22     5     1    1
    23     1    29    1
    24    29    30    1
    25    30    38    1
    26    38    39   ar
    27    39    40   ar
    28    40    41   ar
    29    41    42   ar
    30    42    43    1
    31    42    44   ar
    32    30    31    1
    33    31    32    1
    34    32    33    1
    35    33    34   am
    36    34    35    2
    37    34    45    1
    38    45    46   ar
    39    46    47   ar
    40    47    48   ar
    41    48    49   ar
    42    49    51    1
    43    51    52   am
    44    51    53    2
    45    49    50   ar
    46    33    36    1
    47    36    37    1
    48     5     6    1
    49     6     7    1
    50    24    25   ar
    51    25    26   ar
    52    26    21   ar
    53    19    13   ar
    54     7     2    1
    55    37    30    1
    56    44    38   ar
    57    50    45   ar
    58     8    12    1
    59    52    54    1
    60    52    55    1
@<TRIPOS>MOLECULE
*****
 55 60 0 0 0
SMALL
GASTEIGER

@<TRIPOS>ATOM
      1 C         142.1627  142.1094  161.4880 C.3     1  UNL1        0.0724
      2 C         140.5461  143.5326  157.5370 C.3     1  UNL1        0.0840
      3 C         141.6878  142.5604  157.5739 C.3     1  UNL1        0.0376
      4 C         142.2266  142.0860  158.8909 C.3     1  UNL1        0.0738
      5 N         141.6238  142.5838  160.1710 N.3     1  UNL1       -0.2726
      6 C         140.4821  143.5560  160.1342 C.3     1  UNL1        0.0738
      7 C         139.9432  144.0304  158.8172 C.3     1  UNL1        0.0376
      8 N         140.0615  145.6899  154.2413 N.am    1  UNL1       -0.2844
      9 C         140.6004  145.2155  155.5583 C.2     1  UNL1        0.3079
     10 O         141.7325  145.9495  156.2137 O.2     1  UNL1       -0.2522
     11 N         140.0072  144.0070  156.2200 N.am    1  UNL1       -0.2448
     12 H         139.3185  145.2081  153.8112 H       1  UNL1        0.1513
     13 C         138.8751  143.2729  155.5646 C.ar    1  UNL1        0.0574
     14 C         137.4576  143.6729  155.8486 C.ar    1  UNL1        0.0151
     15 C         136.3255  142.9388  155.1931 C.ar    1  UNL1        0.0036
     16 C         136.6109  141.8048  154.2537 C.ar    1  UNL1        0.0297
     17 C         138.0285  141.4048  153.9697 C.ar    1  UNL1        0.1414
     18 F         138.3139  140.2708  153.0304 F       1  UNL1       -0.2041
     19 C         139.1605  142.1389  154.6251 C.ar    1  UNL1        0.0446
     20 C         140.6547  146.8983  153.5797 C.3     1  UNL1        0.1177
     21 C         139.1437  151.0058  154.6262 C.ar    1  UNL1        0.0684
     22 C         138.6987  149.8169  155.4252 C.ar    1  UNL1        0.0100
     23 C         139.2024  148.4477  155.0763 C.ar    1  UNL1       -0.0019
     24 C         140.1510  148.2675  153.9285 C.ar    1  UNL1       -0.0025
     25 C         140.5960  149.4564  153.1295 C.ar    1  UNL1       -0.0019
     26 C         140.0923  150.8256  153.4783 C.ar    1  UNL1        0.0100
     27 N         138.1364  153.7442  155.3239 N.1     1  UNL1       -0.1908
     28 C         138.6401  152.3750  154.9750 C.1     1  UNL1        0.1004
     29 C         142.1833  140.6436  161.8059 C.3     1  UNL1        0.0215
     30 C         141.0651  140.0319  162.5967 C.3     1  UNL1        0.0236
     31 C         141.8501  140.6686  163.7050 C.3     1  UNL1        0.0257
     32 C         141.3790  140.5462  165.1239 C.3     1  UNL1        0.0940
     33 N         140.1231  139.7872  165.4344 N.am    1  UNL1       -0.2761
     34 C         139.6521  139.6648  166.8533 C.2     1  UNL1        0.2490
     35 O         138.3962  138.9058  167.1638 O.2     1  UNL1       -0.2699
     36 C         139.3381  139.1505  164.3261 C.3     1  UNL1        0.0940
     37 C         139.8091  139.2729  162.9072 C.3     1  UNL1        0.0257
     38 C         140.6685  139.6077  161.2137 C.ar    1  UNL1       -0.0204
     39 C         139.3173  139.9745  160.6752 C.ar    1  UNL1       -0.0041
     40 C         138.9207  139.5502  159.2922 C.ar    1  UNL1        0.0020
     41 C         139.8752  138.7593  158.4477 C.ar    1  UNL1        0.0296
     42 C         141.2264  138.3926  158.9861 C.ar    1  UNL1        0.1398
     43 F         142.1808  137.6016  158.1415 F       1  UNL1       -0.2042
     44 C         141.6230  138.8168  160.3691 C.ar    1  UNL1        0.0254
     45 C         140.4371  140.3015  167.9617 C.ar    1  UNL1        0.0537
     46 C         141.7661  139.7329  168.3620 C.ar    1  UNL1        0.0045
     47 C         142.5511  140.3696  169.4704 C.ar    1  UNL1        0.0003
     48 C         142.0070  141.5749  170.1784 C.ar    1  UNL1        0.0045
     49 C         140.6780  142.1435  169.7780 C.ar    1  UNL1        0.0533
     50 C         139.8930  141.5068  168.6697 C.ar    1  UNL1        0.0090
     51 C         140.1338  143.3488  170.4859 C.2     1  UNL1        0.2427
     52 N         138.9339  143.2173  171.3765 N.am    1  UNL1       -0.3253
     53 O         140.7894  144.6855  170.3034 O.2     1  UNL1       -0.2704
     54 H         138.5036  142.3399  171.4963 H       1  UNL1        0.1453
     55 H         138.5767  144.0083  171.8412 H       1  UNL1        0.1453
@<TRIPOS>BOND
     1    27    28    3
     2    28    21    1
     3    21    22   ar
     4    22    23   ar
     5    23    24   ar
     6    24    20    1
     7    20     8    1
     8     8     9   am
     9     9    10    2
    10     9    11   am
    11    11    13    1
    12    13    14   ar
    13    14    15   ar
    14    15    16   ar
    15    16    17   ar
    16    17    18    1
    17    17    19   ar
    18    11     2    1
    19     2     3    1
    20     3     4    1
    21     4     5    1
    22     5     1    1
    23     1    29    1
    24    29    30    1
    25    30    38    1
    26    38    39   ar
    27    39    40   ar
    28    40    41   ar
    29    41    42   ar
    30    42    43    1
    31    42    44   ar
    32    30    31    1
    33    31    32    1
    34    32    33    1
    35    33    34   am
    36    34    35    2
    37    34    45    1
    38    45    46   ar
    39    46    47   ar
    40    47    48   ar
    41    48    49   ar
    42    49    51    1
    43    51    52   am
    44    51    53    2
    45    49    50   ar
    46    33    36    1
    47    36    37    1
    48     5     6    1
    49     6     7    1
    50    24    25   ar
    51    25    26   ar
    52    26    21   ar
    53    19    13   ar
    54     7     2    1
    55    37    30    1
    56    44    38   ar
    57    50    45   ar
    58     8    12    1
    59    52    54    1
    60    52    55    1
@<TRIPOS>MOLECULE
*****
 55 60 0 0 0
SMALL
GASTEIGER

@<TRIPOS>ATOM
      1 C         138.1339  140.6143  157.6535 C.3     1  UNL1        0.0724
      2 C         139.8174  141.8075  161.6525 C.3     1  UNL1        0.0840
      3 C         138.8342  142.7008  160.9559 C.3     1  UNL1        0.0376
      4 C         138.2731  142.3031  159.6229 C.3     1  UNL1        0.0738
      5 N         138.6951  141.0120  158.9865 N.3     1  UNL1       -0.2726
      6 C         139.6783  140.1186  159.6832 C.3     1  UNL1        0.0738
      7 C         140.2394  140.5164  161.0162 C.3     1  UNL1        0.0376
      8 N         140.3858  142.0001  165.5755 N.am    1  UNL1       -0.2844
      9 C         139.8247  141.6024  164.2425 C.2     1  UNL1        0.3079
     10 O         138.7098  140.6019  164.1665 O.2     1  UNL1       -0.2522
     11 N         140.3785  142.2052  162.9856 N.am    1  UNL1       -0.2448
     12 H         141.1176  142.6568  165.6255 H       1  UNL1        0.1513
     13 C         141.4935  143.2058  163.0616 C.ar    1  UNL1        0.0574
     14 C         141.2758  144.5203  163.7506 C.ar    1  UNL1        0.0151
     15 C         142.3908  145.5209  163.8266 C.ar    1  UNL1        0.0036
     16 C         143.7234  145.2069  163.2138 C.ar    1  UNL1        0.0297
     17 C         143.9410  143.8923  162.5248 C.ar    1  UNL1        0.1414
     18 F         145.2736  143.5783  161.9120 F       1  UNL1       -0.2041
     19 C         142.8261  142.8918  162.4488 C.ar    1  UNL1        0.0446
     20 C         139.8321  141.3973  166.8325 C.3     1  UNL1        0.1177
     21 C         142.4435  138.8089  169.4268 C.ar    1  UNL1        0.0684
     22 C         142.7859  139.0082  167.9801 C.ar    1  UNL1        0.0100
     23 C         141.9154  139.8710  167.1153 C.ar    1  UNL1       -0.0019
     24 C         140.7026  140.5345  167.6972 C.ar    1  UNL1       -0.0025
     25 C         140.3602  140.3352  169.1439 C.ar    1  UNL1       -0.0019
     26 C         141.2307  139.4724  170.0087 C.ar    1  UNL1        0.0100
     27 N         144.1845  137.0833  171.1563 N.1     1  UNL1       -0.1908
     28 C         143.3140  137.9461  170.2915 C.1     1  UNL1        0.1004
     29 C         138.6628  141.2440  156.3991 C.3     1  UNL1        0.0215
     30 C         140.1258  141.1630  156.0783 C.3     1  UNL1        0.0236
     31 C         139.7563  139.7128  155.9773 C.3     1  UNL1        0.0257
     32 C         140.8018  138.6949  155.6293 C.3     1  UNL1        0.0940
     33 N         142.2167  139.1273  155.3824 N.am    1  UNL1       -0.2761
     34 C         143.2621  138.1095  155.0344 C.2     1  UNL1        0.2490
     35 O         144.6770  138.5420  154.7875 O.2     1  UNL1       -0.2699
     36 C         142.5862  140.5776  155.4834 C.3     1  UNL1        0.0940
     37 C         141.5407  141.5954  155.8314 C.3     1  UNL1        0.0257
     38 C         139.9872  142.6414  156.2908 C.ar    1  UNL1       -0.0204
     39 C         140.8632  143.3414  157.2871 C.ar    1  UNL1       -0.0041
     40 C         140.7246  144.8198  157.4995 C.ar    1  UNL1        0.0020
     41 C         139.7099  145.5982  156.7157 C.ar    1  UNL1        0.0296
     42 C         138.8339  144.8982  155.7193 C.ar    1  UNL1        0.1398
     43 F         137.8192  145.6767  154.9355 F       1  UNL1       -0.2042
     44 C         138.9725  143.4198  155.5069 C.ar    1  UNL1        0.0254
     45 C         142.8926  136.6592  154.9334 C.ar    1  UNL1        0.0537
     46 C         142.2589  136.1323  153.6802 C.ar    1  UNL1        0.0045
     47 C         141.8894  134.6820  153.5791 C.ar    1  UNL1        0.0003
     48 C         142.1536  133.7587  154.7315 C.ar    1  UNL1        0.0045
     49 C         142.7873  134.2857  155.9847 C.ar    1  UNL1        0.0533
     50 C         143.1568  135.7359  156.0857 C.ar    1  UNL1        0.0090
     51 C         143.0515  133.3625  157.1370 C.2     1  UNL1        0.2427
     52 N         143.7351  133.8774  158.3690 N.am    1  UNL1       -0.3253
     53 O         142.6322  131.9245  157.0575 O.2     1  UNL1       -0.2704
     54 H         144.0103  134.8212  158.4212 H       1  UNL1        0.1453
     55 H         143.9085  133.2715  159.1254 H       1  UNL1        0.1453
@<TRIPOS>BOND
     1    27    28    3
     2    28    21    1
     3    21    22   ar
     4    22    23   ar
     5    23    24   ar
     6    24    20    1
     7    20     8    1
     8     8     9   am
     9     9    10    2
    10     9    11   am
    11    11    13    1
    12    13    14   ar
    13    14    15   ar
    14    15    16   ar
    15    16    17   ar
    16    17    18    1
    17    17    19   ar
    18    11     2    1
    19     2     3    1
    20     3     4    1
    21     4     5    1
    22     5     1    1
    23     1    29    1
    24    29    30    1
    25    30    38    1
    26    38    39   ar
    27    39    40   ar
    28    40    41   ar
    29    41    42   ar
    30    42    43    1
    31    42    44   ar
    32    30    31    1
    33    31    32    1
    34    32    33    1
    35    33    34   am
    36    34    35    2
    37    34    45    1
    38    45    46   ar
    39    46    47   ar
    40    47    48   ar
    41    48    49   ar
    42    49    51    1
    43    51    52   am
    44    51    53    2
    45    49    50   ar
    46    33    36    1
    47    36    37    1
    48     5     6    1
    49     6     7    1
    50    24    25   ar
    51    25    26   ar
    52    26    21   ar
    53    19    13   ar
    54     7     2    1
    55    37    30    1
    56    44    38   ar
    57    50    45   ar
    58     8    12    1
    59    52    54    1
    60    52    55    1
@<TRIPOS>MOLECULE
*****
 55 60 0 0 0
SMALL
GASTEIGER

@<TRIPOS>ATOM
      1 C         145.1596  140.6514  156.1996 C.3     1  UNL1        0.0724
      2 C         143.3964  141.4754  160.2570 C.3     1  UNL1        0.0840
      3 C         144.2559  142.5074  159.5891 C.3     1  UNL1        0.0376
      4 C         144.8436  142.2328  158.2366 C.3     1  UNL1        0.0738
      5 N         144.5719  140.9261  157.5521 N.3     1  UNL1       -0.2726
      6 C         143.7124  139.8940  158.2200 C.3     1  UNL1        0.0738
      7 C         143.1246  140.1686  159.5724 C.3     1  UNL1        0.0376
      8 N         142.7194  141.2761  164.1624 N.am    1  UNL1       -0.2844
      9 C         143.3072  141.0014  162.8099 C.2     1  UNL1        0.3079
     10 O         144.3934  139.9782  162.6579 O.2     1  UNL1       -0.2522
     11 N         142.8086  141.7500  161.6094 N.am    1  UNL1       -0.2448
     12 H         142.0065  141.9476  164.2621 H       1  UNL1        0.1513
     13 C         141.7224  142.7732  161.7614 C.ar    1  UNL1        0.0574
     14 C         142.0721  144.1967  162.0798 C.ar    1  UNL1        0.0151
     15 C         140.9858  145.2199  162.2318 C.ar    1  UNL1        0.0036
     16 C         139.5499  144.8196  162.0654 C.ar    1  UNL1        0.0297
     17 C         139.2001  143.3961  161.7470 C.ar    1  UNL1        0.1414
     18 F         137.7642  142.9958  161.5806 F       1  UNL1       -0.2041
     19 C         140.2864  142.3729  161.5950 C.ar    1  UNL1        0.0446
     20 C         143.2179  140.5275  165.3628 C.3     1  UNL1        0.1177
     21 C         141.5620  141.4584  169.4423 C.ar    1  UNL1        0.0684
     22 C         141.3747  140.0928  168.8505 C.ar    1  UNL1        0.0100
     23 C         141.9267  139.7826  167.4907 C.ar    1  UNL1       -0.0019
     24 C         142.6659  140.8378  166.7226 C.ar    1  UNL1       -0.0025
     25 C         142.8532  142.2033  167.3144 C.ar    1  UNL1       -0.0019
     26 C         142.3013  142.5136  168.6742 C.ar    1  UNL1        0.0100
     27 N         140.4581  142.0789  172.1619 N.1     1  UNL1       -0.1908
     28 C         141.0101  141.7686  170.8021 C.1     1  UNL1        0.1004
     29 C         144.4049  141.0360  154.9617 C.3     1  UNL1        0.0215
     30 C         142.9826  140.5944  154.7829 C.3     1  UNL1        0.0236
     31 C         143.6719  139.2622  154.7754 C.3     1  UNL1        0.0257
     32 C         142.8711  138.0043  154.6133 C.3     1  UNL1        0.0940
     33 N         141.3810  138.0786  154.4586 N.am    1  UNL1       -0.2761
     34 C         140.5801  136.8207  154.2964 C.2     1  UNL1        0.2490
     35 O         139.0899  136.8951  154.1417 O.2     1  UNL1       -0.2699
     36 C         140.6916  139.4108  154.4660 C.3     1  UNL1        0.0940
     37 C         141.4925  140.6687  154.6282 C.3     1  UNL1        0.0257
     38 C         142.7873  142.0800  154.8524 C.ar    1  UNL1       -0.0204
     39 C         143.4574  142.9723  153.8499 C.ar    1  UNL1       -0.0041
     40 C         143.2621  144.4579  153.9195 C.ar    1  UNL1        0.0020
     41 C         142.3968  145.0512  154.9915 C.ar    1  UNL1        0.0296
     42 C         141.7268  144.1589  155.9939 C.ar    1  UNL1        0.1398
     43 F         140.8615  144.7524  157.0659 F       1  UNL1       -0.2042
     44 C         141.9221  142.6733  155.9244 C.ar    1  UNL1        0.0254
     45 C         141.2694  135.4884  154.2890 C.ar    1  UNL1        0.0537
     46 C         141.4939  134.7674  152.9930 C.ar    1  UNL1        0.0045
     47 C         142.1832  133.4352  152.9856 C.ar    1  UNL1        0.0003
     48 C         142.6480  132.8240  154.2742 C.ar    1  UNL1        0.0045
     49 C         142.4235  133.5451  155.5702 C.ar    1  UNL1        0.0533
     50 C         141.7341  134.8773  155.5776 C.ar    1  UNL1        0.0090
     51 C         142.8882  132.9340  156.8588 C.2     1  UNL1        0.2427
     52 N         143.6466  133.7641  157.8519 N.am    1  UNL1       -0.3253
     53 O         142.5946  131.4931  157.1545 O.2     1  UNL1       -0.2704
     54 H         143.8392  134.7098  157.6578 H       1  UNL1        0.1453
     55 H         143.9516  133.3630  158.6977 H       1  UNL1        0.1453
@<TRIPOS>BOND
     1    27    28    3
     2    28    21    1
     3    21    22   ar
     4    22    23   ar
     5    23    24   ar
     6    24    20    1
     7    20     8    1
     8     8     9   am
     9     9    10    2
    10     9    11   am
    11    11    13    1
    12    13    14   ar
    13    14    15   ar
    14    15    16   ar
    15    16    17   ar
    16    17    18    1
    17    17    19   ar
    18    11     2    1
    19     2     3    1
    20     3     4    1
    21     4     5    1
    22     5     1    1
    23     1    29    1
    24    29    30    1
    25    30    38    1
    26    38    39   ar
    27    39    40   ar
    28    40    41   ar
    29    41    42   ar
    30    42    43    1
    31    42    44   ar
    32    30    31    1
    33    31    32    1
    34    32    33    1
    35    33    34   am
    36    34    35    2
    37    34    45    1
    38    45    46   ar
    39    46    47   ar
    40    47    48   ar
    41    48    49   ar
    42    49    51    1
    43    51    52   am
    44    51    53    2
    45    49    50   ar
    46    33    36    1
    47    36    37    1
    48     5     6    1
    49     6     7    1
    50    24    25   ar
    51    25    26   ar
    52    26    21   ar
    53    19    13   ar
    54     7     2    1
    55    37    30    1
    56    44    38   ar
    57    50    45   ar
    58     8    12    1
    59    52    54    1
    60    52    55    1
@<TRIPOS>MOLECULE
*****
 55 60 0 0 0
SMALL
GASTEIGER

@<TRIPOS>ATOM
      1 C         140.2237  142.6067  161.6709 C.3     1  UNL1        0.0724
      2 C         140.2056  145.0197  157.8726 C.3     1  UNL1        0.0840
      3 C         139.3935  143.7620  157.9661 C.3     1  UNL1        0.0376
      4 C         139.3996  142.9577  159.2322 C.3     1  UNL1        0.0738
      5 N         140.2177  143.4110  160.4048 N.3     1  UNL1       -0.2726
      6 C         141.0298  144.6688  160.3114 C.3     1  UNL1        0.0738
      7 C         141.0237  145.4731  159.0453 C.3     1  UNL1        0.0376
      8 N         139.4983  147.9570  155.2992 N.am    1  UNL1       -0.2844
      9 C         139.5044  147.1526  156.5653 C.2     1  UNL1        0.3079
     10 O         138.8153  147.6768  157.7902 O.2     1  UNL1       -0.2522
     11 N         140.1995  145.8240  156.6065 N.am    1  UNL1       -0.2448
     12 H         139.9506  147.6129  154.4953 H       1  UNL1        0.1513
     13 C         140.8886  145.2998  155.3816 C.ar    1  UNL1        0.0574
     14 C         140.0816  144.7282  154.2538 C.ar    1  UNL1        0.0151
     15 C         140.7707  144.2040  153.0289 C.ar    1  UNL1        0.0036
     16 C         142.2668  144.2514  152.9319 C.ar    1  UNL1        0.0297
     17 C         143.0738  144.8230  154.0597 C.ar    1  UNL1        0.1414
     18 F         144.5699  144.8704  153.9627 F       1  UNL1       -0.2041
     19 C         142.3847  145.3472  155.2845 C.ar    1  UNL1        0.0446
     20 C         138.8032  149.2855  155.2580 C.3     1  UNL1        0.1177
     21 C         140.8742  152.8537  153.4609 C.ar    1  UNL1        0.0684
     22 C         139.5503  153.0211  154.1459 C.ar    1  UNL1        0.0100
     23 C         138.8599  151.8317  154.7449 C.ar    1  UNL1       -0.0019
     24 C         139.4935  150.4749  154.6590 C.ar    1  UNL1       -0.0025
     25 C         140.8174  150.3074  153.9740 C.ar    1  UNL1       -0.0019
     26 C         141.5078  151.4968  153.3750 C.ar    1  UNL1        0.0100
     27 N         142.2548  155.2324  152.2629 N.1     1  UNL1       -0.1908
     28 C         141.5645  154.0430  152.8619 C.1     1  UNL1        0.1004
     29 C         140.3174  141.1109  161.6088 C.3     1  UNL1        0.0215
     30 C         141.2867  140.3829  162.4922 C.3     1  UNL1        0.0236
     31 C         140.4230  141.0320  163.5326 C.3     1  UNL1        0.0257
     32 C         140.7116  140.8155  164.9886 C.3     1  UNL1        0.0940
     33 N         141.8639  139.9498  165.4041 N.am    1  UNL1       -0.2761
     34 C         142.1525  139.7332  166.8601 C.2     1  UNL1        0.2490
     35 O         143.3049  138.8675  167.2755 O.2     1  UNL1       -0.2699
     36 C         142.7277  139.3006  164.3637 C.3     1  UNL1        0.0940
     37 C         142.4391  139.5172  162.9077 C.3     1  UNL1        0.0257
     38 C         141.8138  139.9866  161.1449 C.ar    1  UNL1       -0.0204
     39 C         141.1855  138.8467  160.3994 C.ar    1  UNL1       -0.0041
     40 C         141.7126  138.4504  159.0521 C.ar    1  UNL1        0.0020
     41 C         142.8680  139.1940  158.4504 C.ar    1  UNL1        0.0296
     42 C         143.4963  140.3339  159.1960 C.ar    1  UNL1        0.1398
     43 F         144.6517  141.0775  158.5942 F       1  UNL1       -0.2042
     44 C         142.9692  140.7302  160.5432 C.ar    1  UNL1        0.0254
     45 C         141.2888  140.3824  167.9005 C.ar    1  UNL1        0.0537
     46 C         140.0179  139.7185  168.3409 C.ar    1  UNL1        0.0045
     47 C         139.1541  140.3676  169.3813 C.ar    1  UNL1        0.0003
     48 C         139.5613  141.6807  169.9814 C.ar    1  UNL1        0.0045
     49 C         140.8322  142.3446  169.5410 C.ar    1  UNL1        0.0533
     50 C         141.6960  141.6955  168.5006 C.ar    1  UNL1        0.0090
     51 C         141.2395  143.6577  170.1410 C.2     1  UNL1        0.2427
     52 N         140.2341  144.7622  170.2812 N.am    1  UNL1       -0.3253
     53 O         142.6519  143.8664  170.6007 O.2     1  UNL1       -0.2704
     54 H         139.3071  144.6252  169.9795 H       1  UNL1        0.1453
     55 H         140.5014  145.6240  170.6750 H       1  UNL1        0.1453
@<TRIPOS>BOND
     1    27    28    3
     2    28    21    1
     3    21    22   ar
     4    22    23   ar
     5    23    24   ar
     6    24    20    1
     7    20     8    1
     8     8     9   am
     9     9    10    2
    10     9    11   am
    11    11    13    1
    12    13    14   ar
    13    14    15   ar
    14    15    16   ar
    15    16    17   ar
    16    17    18    1
    17    17    19   ar
    18    11     2    1
    19     2     3    1
    20     3     4    1
    21     4     5    1
    22     5     1    1
    23     1    29    1
    24    29    30    1
    25    30    38    1
    26    38    39   ar
    27    39    40   ar
    28    40    41   ar
    29    41    42   ar
    30    42    43    1
    31    42    44   ar
    32    30    31    1
    33    31    32    1
    34    32    33    1
    35    33    34   am
    36    34    35    2
    37    34    45    1
    38    45    46   ar
    39    46    47   ar
    40    47    48   ar
    41    48    49   ar
    42    49    51    1
    43    51    52   am
    44    51    53    2
    45    49    50   ar
    46    33    36    1
    47    36    37    1
    48     5     6    1
    49     6     7    1
    50    24    25   ar
    51    25    26   ar
    52    26    21   ar
    53    19    13   ar
    54     7     2    1
    55    37    30    1
    56    44    38   ar
    57    50    45   ar
    58     8    12    1
    59    52    54    1
    60    52    55    1
@<TRIPOS>MOLECULE
*****
 55 60 0 0 0
SMALL
GASTEIGER

@<TRIPOS>ATOM
      1 C         140.2173  138.6970  165.4838 C.3     1  UNL1        0.0724
      2 C         140.7508  138.6655  161.0156 C.3     1  UNL1        0.0840
      3 C         141.9141  138.9833  161.9076 C.3     1  UNL1        0.0376
      4 C         141.7363  138.9938  163.3970 C.3     1  UNL1        0.0738
      5 N         140.3952  138.6865  163.9944 N.3     1  UNL1       -0.2726
      6 C         139.2318  138.3687  163.1024 C.3     1  UNL1        0.0738
      7 C         139.4096  138.3582  161.6130 C.3     1  UNL1        0.0376
      8 N         142.1495  137.7658  157.4122 N.am    1  UNL1       -0.2844
      9 C         141.9717  137.7763  158.9016 C.2     1  UNL1        0.3079
     10 O         142.8368  136.9082  159.7664 O.2     1  UNL1       -0.2522
     11 N         140.9286  138.6550  159.5262 N.am    1  UNL1       -0.2448
     12 H         141.5816  138.3356  156.8447 H       1  UNL1        0.1513
     13 C         140.0635  139.5231  158.6615 C.ar    1  UNL1        0.0574
     14 C         139.4960  138.9803  157.3834 C.ar    1  UNL1        0.0151
     15 C         138.6308  139.8485  156.5186 C.ar    1  UNL1        0.0036
     16 C         138.3331  141.2593  156.9319 C.ar    1  UNL1        0.0297
     17 C         138.9006  141.8021  158.2100 C.ar    1  UNL1        0.1414
     18 F         138.6029  143.2129  158.6233 F       1  UNL1       -0.2041
     19 C         139.7657  140.9340  159.0747 C.ar    1  UNL1        0.0446
     20 C         143.1925  136.8872  156.7876 C.3     1  UNL1        0.1177
     21 C         142.2584  132.5787  155.8850 C.ar    1  UNL1        0.0684
     22 C         141.4191  133.6691  155.2879 C.ar    1  UNL1        0.0100
     23 C         141.7304  135.1053  155.5888 C.ar    1  UNL1       -0.0019
     24 C         142.8811  135.4510  156.4867 C.ar    1  UNL1       -0.0025
     25 C         143.7204  134.3606  157.0838 C.ar    1  UNL1       -0.0019
     26 C         143.4090  132.9245  156.7829 C.ar    1  UNL1        0.0100
     27 N         141.6356  129.7064  155.2832 N.1     1  UNL1       -0.1908
     28 C         141.9470  131.1426  155.5841 C.1     1  UNL1        0.1004
     29 C         139.9710  139.9914  166.2006 C.3     1  UNL1        0.0215
     30 C         141.0232  141.0605  166.2012 C.3     1  UNL1        0.0236
     31 C         140.3164  141.3913  164.9202 C.3     1  UNL1        0.0257
     32 C         140.7805  142.5474  164.0846 C.3     1  UNL1        0.0940
     33 N         141.9512  143.3726  164.5300 N.am    1  UNL1       -0.2761
     34 C         142.4152  144.5287  163.6943 C.2     1  UNL1        0.2490
     35 O         143.5859  145.3538  164.1398 O.2     1  UNL1       -0.2699
     36 C         142.6579  143.0417  165.8110 C.3     1  UNL1        0.0940
     37 C         142.1939  141.8856  166.6466 C.3     1  UNL1        0.0257
     38 C         141.3645  140.3583  167.4820 C.ar    1  UNL1       -0.0204
     39 C         142.6425  139.5809  167.5936 C.ar    1  UNL1       -0.0041
     40 C         142.9838  138.8787  168.8744 C.ar    1  UNL1        0.0020
     41 C         142.0472  138.9539  170.0435 C.ar    1  UNL1        0.0296
     42 C         140.7692  139.7314  169.9320 C.ar    1  UNL1        0.1398
     43 F         139.8326  139.8065  171.1012 F       1  UNL1       -0.2042
     44 C         140.4279  140.4335  168.6512 C.ar    1  UNL1        0.0254
     45 C         141.7084  144.8595  162.4133 C.ar    1  UNL1        0.0537
     46 C         140.4973  145.7442  162.4318 C.ar    1  UNL1        0.0045
     47 C         139.7905  146.0750  161.1508 C.ar    1  UNL1        0.0003
     48 C         140.2949  145.5211  159.8513 C.ar    1  UNL1        0.0045
     49 C         141.5061  144.6365  159.8327 C.ar    1  UNL1        0.0533
     50 C         142.2129  144.3056  161.1138 C.ar    1  UNL1        0.0090
     51 C         142.0106  144.0826  158.5333 C.2     1  UNL1        0.2427
     52 N         143.2898  143.2999  158.4978 N.am    1  UNL1       -0.3253
     53 O         141.2361  144.3113  157.2693 O.2     1  UNL1       -0.2704
     54 H         143.7982  143.1498  159.3275 H       1  UNL1        0.1453
     55 H         143.6210  142.9363  157.6450 H       1  UNL1        0.1453
@<TRIPOS>BOND
     1    27    28    3
     2    28    21    1
     3    21    22   ar
     4    22    23   ar
     5    23    24   ar
     6    24    20    1
     7    20     8    1
     8     8     9   am
     9     9    10    2
    10     9    11   am
    11    11    13    1
    12    13    14   ar
    13    14    15   ar
    14    15    16   ar
    15    16    17   ar
    16    17    18    1
    17    17    19   ar
    18    11     2    1
    19     2     3    1
    20     3     4    1
    21     4     5    1
    22     5     1    1
    23     1    29    1
    24    29    30    1
    25    30    38    1
    26    38    39   ar
    27    39    40   ar
    28    40    41   ar
    29    41    42   ar
    30    42    43    1
    31    42    44   ar
    32    30    31    1
    33    31    32    1
    34    32    33    1
    35    33    34   am
    36    34    35    2
    37    34    45    1
    38    45    46   ar
    39    46    47   ar
    40    47    48   ar
    41    48    49   ar
    42    49    51    1
    43    51    52   am
    44    51    53    2
    45    49    50   ar
    46    33    36    1
    47    36    37    1
    48     5     6    1
    49     6     7    1
    50    24    25   ar
    51    25    26   ar
    52    26    21   ar
    53    19    13   ar
    54     7     2    1
    55    37    30    1
    56    44    38   ar
    57    50    45   ar
    58     8    12    1
    59    52    54    1
    60    52    55    1
