@<TRIPOS>MOLECULE
*****
 38 41 0 0 0
SMALL
GASTEIGER

@<TRIPOS>ATOM
      1 N         140.1370  138.9849  162.9427 N.3     1  UNL1       -0.2711
      2 C         140.3478  139.9001  161.7731 C.3     1  UNL1        0.0933
      3 C         140.6099  138.7144  160.8925 C.3     1  UNL1        0.1035
      4 C         140.3991  137.7992  162.0621 C.3     1  UNL1        0.0933
      5 C         139.1339  139.5587  167.2918 C.3     1  UNL1        0.1140
      6 O         138.1212  139.1153  168.3056 O.3     1  UNL1       -0.3821
      7 C         140.3204  140.2577  166.6972 C.3     1  UNL1        0.0331
      8 C         140.6548  140.0665  165.2476 C.3     1  UNL1        0.0187
      9 C         139.8026  139.1762  164.3925 C.3     1  UNL1        0.0578
     10 C         138.6161  138.4771  164.9870 C.3     1  UNL1        0.0187
     11 C         138.2818  138.6684  166.4367 C.3     1  UNL1        0.0331
     12 H         138.3216  139.5233  169.1625 H       1  UNL1        0.2107
     13 C         140.9567  141.7258  169.9464 C.ar    1  UNL1        0.0880
     14 N         139.8517  141.1302  170.7675 N.ar    1  UNL1       -0.2414
     15 C         139.0344  140.2459  169.8730 C.ar    1  UNL1        0.1034
     16 C         139.6343  140.2950  168.4990 C.ar    1  UNL1        0.0514
     17 S         140.8223  141.2096  168.5444 S.2     1  UNL1       -0.0728
     18 C         143.4364  142.4990  170.0062 C.3     1  UNL1        0.0073
     19 C         142.0110  142.6716  170.4405 C.3     1  UNL1        0.0526
     20 N         140.9443  138.5231  159.4429 N.am    1  UNL1       -0.3018
     21 C         142.3646  138.2789  159.0266 C.2     1  UNL1        0.2426
     22 O         143.4505  138.2260  160.0601 O.2     1  UNL1       -0.2733
     23 H         140.2316  138.5578  158.7646 H       1  UNL1        0.1495
     24 C         142.6990  138.0876  157.5770 C.3     1  UNL1        0.1759
     25 N         142.4902  136.7510  156.9292 N.am    1  UNL1       -0.2931
     26 C         143.5030  136.2221  155.9573 C.2     1  UNL1        0.2462
     27 O         144.7247  137.0299  155.6333 O.2     1  UNL1       -0.2701
     28 H         141.6884  136.2208  157.1419 H       1  UNL1        0.1502
     29 C         143.2942  134.8854  155.3096 C.ar    1  UNL1        0.0533
     30 C         142.3907  134.7621  154.1186 C.ar    1  UNL1        0.0045
     31 C         142.1819  133.4253  153.4708 C.ar    1  UNL1        0.0001
     32 C         142.8766  132.2120  154.0140 C.ar    1  UNL1        0.0039
     33 C         143.7801  132.3353  155.2050 C.ar    1  UNL1        0.0716
     34 C         143.9890  133.6720  155.8528 C.ar    1  UNL1        0.0084
     35 C         144.4749  131.1219  155.7482 C.3     1  UNL1        0.4186
     36 F         145.1696  129.9086  156.2915 F       1  UNL1       -0.1659
     37 F         145.3103  131.9973  156.6348 F       1  UNL1       -0.1659
     38 F         143.6394  130.2467  154.8617 F       1  UNL1       -0.1659
@<TRIPOS>BOND
     1    18    19    1
     2    19    13    1
     3    13    14   ar
     4    14    15   ar
     5    15    16   ar
     6    16     5    1
     7     5     6    1
     8     5     7    1
     9     7     8    1
    10     8     9    1
    11     9     1    1
    12     1     2    1
    13     2     3    1
    14     3    20    1
    15    20    21   am
    16    21    22    2
    17    21    24    1
    18    24    25    1
    19    25    26   am
    20    26    27    2
    21    26    29    1
    22    29    30   ar
    23    30    31   ar
    24    31    32   ar
    25    32    33   ar
    26    33    35    1
    27    35    36    1
    28    35    37    1
    29    35    38    1
    30    33    34   ar
    31     3     4    1
    32     9    10    1
    33    10    11    1
    34    16    17   ar
    35    17    13   ar
    36    11     5    1
    37     4     1    1
    38    34    29   ar
    39     6    12    1
    40    20    23    1
    41    25    28    1
@<TRIPOS>MOLECULE
*****
 38 41 0 0 0
SMALL
GASTEIGER

@<TRIPOS>ATOM
      1 N         142.7414  139.0732  162.6557 N.3     1  UNL1       -0.2711
      2 C         142.4686  139.8788  161.4201 C.3     1  UNL1        0.0933
      3 C         143.0042  138.7621  160.5739 C.3     1  UNL1        0.1035
      4 C         143.2770  137.9566  161.8094 C.3     1  UNL1        0.0933
      5 C         142.1837  139.7330  167.0720 C.3     1  UNL1        0.1140
      6 O         142.8831  139.4638  168.3714 O.3     1  UNL1       -0.3821
      7 C         141.1425  140.2127  166.1047 C.3     1  UNL1        0.0331
      8 C         141.3284  139.9928  164.6326 C.3     1  UNL1        0.0187
      9 C         142.5555  139.2931  164.1279 C.3     1  UNL1        0.0578
     10 C         143.5967  138.8135  165.0952 C.3     1  UNL1        0.0187
     11 C         143.4108  139.0334  166.5673 C.3     1  UNL1        0.0331
     12 H         142.3494  139.8100  169.1036 H       1  UNL1        0.2107
     13 C         140.1322  141.8681  169.5816 C.ar    1  UNL1        0.0880
     14 N         139.2378  140.6753  169.4170 N.ar    1  UNL1       -0.2414
     15 C         139.8974  139.7303  168.4569 C.ar    1  UNL1        0.1034
     16 C         141.1996  140.3391  168.0281 C.ar    1  UNL1        0.0514
     17 S         141.3446  141.6604  168.7232 S.2     1  UNL1       -0.0728
     18 C         140.4428  144.3959  170.0957 C.3     1  UNL1        0.0073
     19 C         139.8617  143.0596  170.4519 C.3     1  UNL1        0.0526
     20 N         143.1901  138.5422  159.1018 N.am    1  UNL1       -0.3018
     21 C         141.9954  138.3477  158.2158 C.2     1  UNL1        0.2426
     22 O         140.6149  138.3731  158.8019 O.2     1  UNL1       -0.2733
     23 H         144.0962  138.5255  158.7171 H       1  UNL1        0.1495
     24 C         142.1813  138.1277  156.7437 C.3     1  UNL1        0.1759
     25 N         142.0607  136.7468  156.1706 N.am    1  UNL1       -0.2931
     26 C         143.2804  136.0360  155.6635 C.2     1  UNL1        0.2462
     27 O         144.6207  136.7063  155.7294 O.2     1  UNL1       -0.2701
     28 H         141.1810  136.3069  156.1274 H       1  UNL1        0.1502
     29 C         143.1598  134.6551  155.0904 C.ar    1  UNL1        0.0533
     30 C         142.4113  134.4376  153.8088 C.ar    1  UNL1        0.0045
     31 C         142.2908  133.0566  153.2358 C.ar    1  UNL1        0.0001
     32 C         142.9186  131.8931  153.9443 C.ar    1  UNL1        0.0039
     33 C         143.6671  132.1106  155.2259 C.ar    1  UNL1        0.0716
     34 C         143.7877  133.4915  155.7990 C.ar    1  UNL1        0.0084
     35 C         144.2949  130.9471  155.9345 C.3     1  UNL1        0.4186
     36 F         144.9227  129.7836  156.6431 F       1  UNL1       -0.1659
     37 F         143.0577  130.1335  155.6946 F       1  UNL1       -0.1659
     38 F         145.5320  131.7607  156.1743 F       1  UNL1       -0.1659
@<TRIPOS>BOND
     1    18    19    1
     2    19    13    1
     3    13    14   ar
     4    14    15   ar
     5    15    16   ar
     6    16     5    1
     7     5     6    1
     8     5     7    1
     9     7     8    1
    10     8     9    1
    11     9     1    1
    12     1     2    1
    13     2     3    1
    14     3    20    1
    15    20    21   am
    16    21    22    2
    17    21    24    1
    18    24    25    1
    19    25    26   am
    20    26    27    2
    21    26    29    1
    22    29    30   ar
    23    30    31   ar
    24    31    32   ar
    25    32    33   ar
    26    33    35    1
    27    35    36    1
    28    35    37    1
    29    35    38    1
    30    33    34   ar
    31     3     4    1
    32     9    10    1
    33    10    11    1
    34    16    17   ar
    35    17    13   ar
    36    11     5    1
    37     4     1    1
    38    34    29   ar
    39     6    12    1
    40    20    23    1
    41    25    28    1
@<TRIPOS>MOLECULE
*****
 38 41 0 0 0
SMALL
GASTEIGER

@<TRIPOS>ATOM
      1 N         139.2456  139.6689  160.9377 N.3     1  UNL1       -0.2711
      2 C         137.7923  139.8013  160.5907 C.3     1  UNL1        0.0933
      3 C         138.1560  140.0235  159.1525 C.3     1  UNL1        0.1035
      4 C         139.6093  139.8911  159.4995 C.3     1  UNL1        0.0933
      5 C         141.5572  138.9168  164.7247 C.3     1  UNL1        0.1140
      6 O         142.6888  138.0729  165.2317 O.3     1  UNL1       -0.3821
      7 C         140.4425  139.9204  164.7132 C.3     1  UNL1        0.0331
      8 C         139.6720  140.1711  163.4509 C.3     1  UNL1        0.0187
      9 C         140.0162  139.4182  162.2001 C.3     1  UNL1        0.0578
     10 C         141.1309  138.4146  162.2115 C.3     1  UNL1        0.0187
     11 C         141.9014  138.1639  163.4738 C.3     1  UNL1        0.0331
     12 H         142.8413  138.2664  166.1699 H       1  UNL1        0.2107
     13 C         141.0061  140.4007  168.2687 C.ar    1  UNL1        0.0880
     14 N         142.3567  139.7675  168.4263 N.ar    1  UNL1       -0.2414
     15 C         142.7275  139.1346  167.1180 C.ar    1  UNL1        0.1034
     16 C         141.6060  139.3766  166.1516 C.ar    1  UNL1        0.0514
     17 S         140.5421  140.1591  166.8629 S.2     1  UNL1       -0.0728
     18 C         139.1402  140.4670  170.0754 C.3     1  UNL1        0.0073
     19 C         140.2518  141.1448  169.3305 C.3     1  UNL1        0.0526
     20 N         137.3855  140.2742  157.8902 N.am    1  UNL1       -0.3018
     21 C         137.4191  141.6292  157.2476 C.2     1  UNL1        0.2426
     22 O         138.2232  142.7334  157.8673 O.2     1  UNL1       -0.2733
     23 H         136.8578  139.5494  157.4834 H       1  UNL1        0.1495
     24 C         136.6486  141.8799  155.9853 C.3     1  UNL1        0.1759
     25 N         135.1495  141.8318  155.9996 N.am    1  UNL1       -0.2931
     26 C         134.4404  140.5137  155.8991 C.2     1  UNL1        0.2462
     27 O         135.2305  139.2439  155.7843 O.2     1  UNL1       -0.2701
     28 H         134.6309  142.6652  156.0749 H       1  UNL1        0.1502
     29 C         132.9413  140.4656  155.9134 C.ar    1  UNL1        0.0533
     30 C         132.1492  141.5764  155.2899 C.ar    1  UNL1        0.0045
     31 C         130.6500  141.5282  155.3042 C.ar    1  UNL1        0.0001
     32 C         129.9429  140.3693  155.9421 C.ar    1  UNL1        0.0039
     33 C         130.7350  139.2585  156.5656 C.ar    1  UNL1        0.0716
     34 C         132.2341  139.3067  156.5513 C.ar    1  UNL1        0.0084
     35 C         130.0279  138.0996  157.2035 C.3     1  UNL1        0.4186
     36 F         129.3208  136.9406  157.8413 F       1  UNL1       -0.1659
     37 F         129.5796  137.6291  155.8515 F       1  UNL1       -0.1659
     38 F         130.4762  138.5702  158.5553 F       1  UNL1       -0.1659
@<TRIPOS>BOND
     1    18    19    1
     2    19    13    1
     3    13    14   ar
     4    14    15   ar
     5    15    16   ar
     6    16     5    1
     7     5     6    1
     8     5     7    1
     9     7     8    1
    10     8     9    1
    11     9     1    1
    12     1     2    1
    13     2     3    1
    14     3    20    1
    15    20    21   am
    16    21    22    2
    17    21    24    1
    18    24    25    1
    19    25    26   am
    20    26    27    2
    21    26    29    1
    22    29    30   ar
    23    30    31   ar
    24    31    32   ar
    25    32    33   ar
    26    33    35    1
    27    35    36    1
    28    35    37    1
    29    35    38    1
    30    33    34   ar
    31     3     4    1
    32     9    10    1
    33    10    11    1
    34    16    17   ar
    35    17    13   ar
    36    11     5    1
    37     4     1    1
    38    34    29   ar
    39     6    12    1
    40    20    23    1
    41    25    28    1
@<TRIPOS>MOLECULE
*****
 38 41 0 0 0
SMALL
GASTEIGER

@<TRIPOS>ATOM
      1 N         143.0697  139.8923  159.2619 N.3     1  UNL1       -0.2711
      2 C         142.6144  139.7376  160.6827 C.3     1  UNL1        0.0933
      3 C         143.0846  141.1296  160.9849 C.3     1  UNL1        0.1035
      4 C         143.5399  141.2843  159.5640 C.3     1  UNL1        0.0933
      5 C         143.0381  137.2676  155.6067 C.3     1  UNL1        0.1140
      6 O         143.3539  137.3337  154.1419 O.3     1  UNL1       -0.3821
      7 C         142.6070  136.7130  156.9321 C.3     1  UNL1        0.0331
      8 C         142.6175  137.5879  158.1504 C.3     1  UNL1        0.0187
      9 C         143.0592  139.0174  158.0434 C.3     1  UNL1        0.0578
     10 C         143.4903  139.5720  156.7181 C.3     1  UNL1        0.0187
     11 C         143.4797  138.6971  155.4998 C.3     1  UNL1        0.0331
     12 H         143.1826  136.4701  153.7348 H       1  UNL1        0.2107
     13 C         142.2517  133.4789  155.3018 C.ar    1  UNL1        0.0880
     14 N         142.1391  133.9144  153.8709 N.ar    1  UNL1       -0.2414
     15 C         142.4200  135.3866  153.8109 C.ar    1  UNL1        0.1034
     16 C         142.7062  135.8611  155.2049 C.ar    1  UNL1        0.0514
     17 S         142.6022  134.6820  156.1263 S.2     1  UNL1       -0.0728
     18 C         142.9840  131.5235  156.8480 C.3     1  UNL1        0.0073
     19 C         142.0493  132.0850  155.8178 C.3     1  UNL1        0.0526
     20 N         143.0951  142.0045  162.2032 N.am    1  UNL1       -0.3018
     21 C         144.3770  142.2415  162.9454 C.2     1  UNL1        0.2426
     22 O         145.6483  141.6035  162.4692 O.2     1  UNL1       -0.2733
     23 H         142.2607  142.4232  162.5158 H       1  UNL1        0.1495
     24 C         144.3875  143.1164  164.1637 C.3     1  UNL1        0.1759
     25 N         143.9766  142.5560  165.4930 N.am    1  UNL1       -0.2931
     26 C         142.5293  142.2809  165.7760 C.2     1  UNL1        0.2462
     27 O         141.4931  142.5663  164.7297 O.2     1  UNL1       -0.2701
     28 H         144.6567  142.3686  166.1798 H       1  UNL1        0.1502
     29 C         142.1184  141.7205  167.1053 C.ar    1  UNL1        0.0533
     30 C         142.5780  140.3534  167.5173 C.ar    1  UNL1        0.0045
     31 C         142.1670  139.7930  168.8467 C.ar    1  UNL1        0.0001
     32 C         141.2964  140.5998  169.7639 C.ar    1  UNL1        0.0039
     33 C         140.8369  141.9669  169.3519 C.ar    1  UNL1        0.0716
     34 C         141.2478  142.5273  168.0226 C.ar    1  UNL1        0.0084
     35 C         139.9663  142.7736  170.2691 C.3     1  UNL1        0.4186
     36 F         139.0957  143.5803  171.1863 F       1  UNL1       -0.1659
     37 F         138.9777  141.6467  170.3218 F       1  UNL1       -0.1659
     38 F         140.9550  143.9004  170.2163 F       1  UNL1       -0.1659
@<TRIPOS>BOND
     1    18    19    1
     2    19    13    1
     3    13    14   ar
     4    14    15   ar
     5    15    16   ar
     6    16     5    1
     7     5     6    1
     8     5     7    1
     9     7     8    1
    10     8     9    1
    11     9     1    1
    12     1     2    1
    13     2     3    1
    14     3    20    1
    15    20    21   am
    16    21    22    2
    17    21    24    1
    18    24    25    1
    19    25    26   am
    20    26    27    2
    21    26    29    1
    22    29    30   ar
    23    30    31   ar
    24    31    32   ar
    25    32    33   ar
    26    33    35    1
    27    35    36    1
    28    35    37    1
    29    35    38    1
    30    33    34   ar
    31     3     4    1
    32     9    10    1
    33    10    11    1
    34    16    17   ar
    35    17    13   ar
    36    11     5    1
    37     4     1    1
    38    34    29   ar
    39     6    12    1
    40    20    23    1
    41    25    28    1
@<TRIPOS>MOLECULE
*****
 38 41 0 0 0
SMALL
GASTEIGER

@<TRIPOS>ATOM
      1 N         141.0589  139.5644  161.4423 N.3     1  UNL1       -0.2711
      2 C         141.4044  138.1762  160.9913 C.3     1  UNL1        0.0933
      3 C         141.4741  138.6548  159.5714 C.3     1  UNL1        0.1035
      4 C         141.1285  140.0430  160.0224 C.3     1  UNL1        0.0933
      5 C         140.1781  141.4941  165.4110 C.3     1  UNL1        0.1140
      6 O         139.8966  142.8475  165.9933 O.3     1  UNL1       -0.3821
      7 C         140.4012  140.0130  165.3303 C.3     1  UNL1        0.0331
      8 C         140.6948  139.3698  164.0074 C.3     1  UNL1        0.0187
      9 C         140.7653  140.2077  162.7652 C.3     1  UNL1        0.0578
     10 C         140.5422  141.6888  162.8460 C.3     1  UNL1        0.0187
     11 C         140.2486  142.3320  164.1688 C.3     1  UNL1        0.0331
     12 H         139.7620  142.7660  166.9505 H       1  UNL1        0.2107
     13 C         140.1023  141.1912  169.2799 C.ar    1  UNL1        0.0880
     14 N         139.3992  139.9292  168.8765 N.ar    1  UNL1       -0.2414
     15 C         139.3420  139.8890  167.3781 C.ar    1  UNL1        0.1034
     16 C         140.0098  141.1263  166.8554 C.ar    1  UNL1        0.0514
     17 S         140.4797  141.9311  168.0308 S.2     1  UNL1       -0.0728
     18 C         141.7947  141.7722  171.1636 C.3     1  UNL1        0.0073
     19 C         140.3795  141.6355  170.6855 C.3     1  UNL1        0.0526
     20 N         141.7677  138.0115  158.2486 N.am    1  UNL1       -0.3018
     21 C         140.6659  137.8129  157.2502 C.2     1  UNL1        0.2426
     22 O         139.2705  138.2575  157.5748 O.2     1  UNL1       -0.2733
     23 H         142.6835  137.7197  158.0356 H       1  UNL1        0.1495
     24 C         140.9595  137.1697  155.9273 C.3     1  UNL1        0.1759
     25 N         141.0397  135.6757  155.8212 N.am    1  UNL1       -0.2931
     26 C         142.2745  134.9565  156.2776 C.2     1  UNL1        0.2462
     27 O         143.4290  135.7315  156.8401 O.2     1  UNL1       -0.2701
     28 H         140.2819  135.1670  155.4520 H       1  UNL1        0.1502
     29 C         142.3547  133.4625  156.1715 C.ar    1  UNL1        0.0533
     30 C         141.4790  132.7317  155.1972 C.ar    1  UNL1        0.0045
     31 C         141.5592  131.2375  155.0911 C.ar    1  UNL1        0.0001
     32 C         142.5151  130.4743  155.9593 C.ar    1  UNL1        0.0039
     33 C         143.3907  131.2051  156.9335 C.ar    1  UNL1        0.0716
     34 C         143.3105  132.6991  157.0396 C.ar    1  UNL1        0.0084
     35 C         144.3466  130.4418  157.8017 C.3     1  UNL1        0.4186
     36 F         145.3025  129.6785  158.6699 F       1  UNL1       -0.1659
     37 F         144.9164  131.7331  158.3096 F       1  UNL1       -0.1659
     38 F         143.7768  129.1506  157.2938 F       1  UNL1       -0.1659
@<TRIPOS>BOND
     1    18    19    1
     2    19    13    1
     3    13    14   ar
     4    14    15   ar
     5    15    16   ar
     6    16     5    1
     7     5     6    1
     8     5     7    1
     9     7     8    1
    10     8     9    1
    11     9     1    1
    12     1     2    1
    13     2     3    1
    14     3    20    1
    15    20    21   am
    16    21    22    2
    17    21    24    1
    18    24    25    1
    19    25    26   am
    20    26    27    2
    21    26    29    1
    22    29    30   ar
    23    30    31   ar
    24    31    32   ar
    25    32    33   ar
    26    33    35    1
    27    35    36    1
    28    35    37    1
    29    35    38    1
    30    33    34   ar
    31     3     4    1
    32     9    10    1
    33    10    11    1
    34    16    17   ar
    35    17    13   ar
    36    11     5    1
    37     4     1    1
    38    34    29   ar
    39     6    12    1
    40    20    23    1
    41    25    28    1
@<TRIPOS>MOLECULE
*****
 38 41 0 0 0
SMALL
GASTEIGER

@<TRIPOS>ATOM
      1 N         138.8930  139.9328  163.6151 N.3     1  UNL1       -0.2711
      2 C         139.0343  140.8549  162.4404 C.3     1  UNL1        0.0933
      3 C         138.6629  139.7337  161.5157 C.3     1  UNL1        0.1035
      4 C         138.5217  138.8117  162.6903 C.3     1  UNL1        0.0933
      5 C         139.3812  140.3551  168.0685 C.3     1  UNL1        0.1140
      6 O         138.9282  139.7029  169.3411 O.3     1  UNL1       -0.3821
      7 C         140.0780  141.3088  167.1439 C.3     1  UNL1        0.0331
      8 C         139.9153  141.1680  165.6595 C.3     1  UNL1        0.0187
      9 C         139.0557  140.0736  165.0996 C.3     1  UNL1        0.0578
     10 C         138.3589  139.1199  166.0242 C.3     1  UNL1        0.0187
     11 C         138.5216  139.2607  167.5087 C.3     1  UNL1        0.0331
     12 H         139.3140  140.1697  170.0988 H       1  UNL1        0.2107
     13 C         141.8044  142.4818  170.2298 C.ar    1  UNL1        0.0880
     14 N         140.5233  142.6352  170.9946 N.ar    1  UNL1       -0.2414
     15 C         139.4596  141.8573  170.2781 C.ar    1  UNL1        0.1034
     16 C         140.0834  141.2230  169.0704 C.ar    1  UNL1        0.0514
     17 S         141.5326  141.6090  169.0405 S.2     1  UNL1       -0.0728
     18 C         144.3750  142.6475  169.8908 C.3     1  UNL1        0.0073
     19 C         143.1255  143.0937  170.5907 C.3     1  UNL1        0.0526
     20 N         138.5002  139.5930  160.0312 N.am    1  UNL1       -0.3018
     21 C         139.6748  139.2086  159.1810 C.2     1  UNL1        0.2426
     22 O         141.0121  138.9651  159.8154 O.2     1  UNL1       -0.2733
     23 H         137.6226  139.7528  159.6149 H       1  UNL1        0.1495
     24 C         139.5121  139.0678  157.6966 C.3     1  UNL1        0.1759
     25 N         139.2662  140.2818  156.8506 N.am    1  UNL1       -0.2931
     26 C         137.9013  140.9026  156.8084 C.2     1  UNL1        0.2462
     27 O         136.7823  140.3093  157.6121 O.2     1  UNL1       -0.2701
     28 H         140.0006  140.6712  156.3231 H       1  UNL1        0.1502
     29 C         137.6553  142.1166  155.9624 C.ar    1  UNL1        0.0533
     30 C         136.7194  142.0386  154.7928 C.ar    1  UNL1        0.0045
     31 C         136.4734  143.2527  153.9469 C.ar    1  UNL1        0.0001
     32 C         137.1635  144.5446  154.2705 C.ar    1  UNL1        0.0039
     33 C         138.0995  144.6226  155.4400 C.ar    1  UNL1        0.0716
     34 C         138.3454  143.4086  156.2860 C.ar    1  UNL1        0.0084
     35 C         138.7895  145.9145  155.7636 C.3     1  UNL1        0.4186
     36 F         139.4796  147.2065  156.0872 F       1  UNL1       -0.1659
     37 F         137.9279  146.6254  154.7624 F       1  UNL1       -0.1659
     38 F         139.6510  145.2035  156.7648 F       1  UNL1       -0.1659
@<TRIPOS>BOND
     1    18    19    1
     2    19    13    1
     3    13    14   ar
     4    14    15   ar
     5    15    16   ar
     6    16     5    1
     7     5     6    1
     8     5     7    1
     9     7     8    1
    10     8     9    1
    11     9     1    1
    12     1     2    1
    13     2     3    1
    14     3    20    1
    15    20    21   am
    16    21    22    2
    17    21    24    1
    18    24    25    1
    19    25    26   am
    20    26    27    2
    21    26    29    1
    22    29    30   ar
    23    30    31   ar
    24    31    32   ar
    25    32    33   ar
    26    33    35    1
    27    35    36    1
    28    35    37    1
    29    35    38    1
    30    33    34   ar
    31     3     4    1
    32     9    10    1
    33    10    11    1
    34    16    17   ar
    35    17    13   ar
    36    11     5    1
    37     4     1    1
    38    34    29   ar
    39     6    12    1
    40    20    23    1
    41    25    28    1
@<TRIPOS>MOLECULE
*****
 38 41 0 0 0
SMALL
GASTEIGER

@<TRIPOS>ATOM
      1 N         142.6358  139.2418  161.3657 N.3     1  UNL1       -0.2711
      2 C         142.4362  137.8431  160.8619 C.3     1  UNL1        0.0933
      3 C         142.5813  138.3307  159.4508 C.3     1  UNL1        0.1035
      4 C         142.7809  139.7294  159.9546 C.3     1  UNL1        0.0933
      5 C         142.7513  141.1745  165.4279 C.3     1  UNL1        0.1140
      6 O         143.4884  142.2514  166.1674 O.3     1  UNL1       -0.3821
      7 C         141.7787  140.0665  165.1519 C.3     1  UNL1        0.0331
      8 C         141.7402  139.4222  163.7979 C.3     1  UNL1        0.0187
      9 C         142.6743  139.8861  162.7198 C.3     1  UNL1        0.0578
     10 C         143.6469  140.9941  162.9957 C.3     1  UNL1        0.0187
     11 C         143.6854  141.6384  164.3498 C.3     1  UNL1        0.0331
     12 H         143.1482  142.3122  167.0738 H       1  UNL1        0.2107
     13 C         140.8747  141.6796  168.7877 C.ar    1  UNL1        0.0880
     14 N         141.1849  140.2133  168.8466 N.ar    1  UNL1       -0.2414
     15 C         141.9256  139.8456  167.5952 C.ar    1  UNL1        0.1034
     16 C         142.0732  141.0847  166.7628 C.ar    1  UNL1        0.0514
     17 S         141.4236  142.2182  167.4999 S.2     1  UNL1       -0.0728
     18 C         140.3901  143.9422  169.9692 C.3     1  UNL1        0.0073
     19 C         140.1437  142.4689  169.8332 C.3     1  UNL1        0.0526
     20 N         142.5428  137.6865  158.0967 N.am    1  UNL1       -0.3018
     21 C         141.2422  137.5694  157.3586 C.2     1  UNL1        0.2426
     22 O         139.9802  138.0965  157.9745 O.2     1  UNL1       -0.2733
     23 H         143.3711  137.3405  157.6925 H       1  UNL1        0.1495
     24 C         141.2037  136.9252  156.0045 C.3     1  UNL1        0.1759
     25 N         141.1772  135.4302  155.8858 N.am    1  UNL1       -0.2931
     26 C         142.4037  134.6301  156.2110 C.2     1  UNL1        0.2462
     27 O         143.6566  135.3251  156.6550 O.2     1  UNL1       -0.2701
     28 H         140.3549  134.9740  155.5944 H       1  UNL1        0.1502
     29 C         142.3772  133.1351  156.0923 C.ar    1  UNL1        0.0533
     30 C         141.5147  132.4803  155.0544 C.ar    1  UNL1        0.0045
     31 C         141.4883  130.9852  154.9357 C.ar    1  UNL1        0.0001
     32 C         142.3243  130.1449  155.8549 C.ar    1  UNL1        0.0039
     33 C         143.1868  130.7997  156.8928 C.ar    1  UNL1        0.0716
     34 C         143.2133  132.2947  157.0115 C.ar    1  UNL1        0.0084
     35 C         144.0229  129.9595  157.8120 C.3     1  UNL1        0.4186
     36 F         144.8590  129.1192  158.7313 F       1  UNL1       -0.1659
     37 F         145.0988  131.0045  157.7886 F       1  UNL1       -0.1659
     38 F         142.9470  128.9146  157.8354 F       1  UNL1       -0.1659
@<TRIPOS>BOND
     1    18    19    1
     2    19    13    1
     3    13    14   ar
     4    14    15   ar
     5    15    16   ar
     6    16     5    1
     7     5     6    1
     8     5     7    1
     9     7     8    1
    10     8     9    1
    11     9     1    1
    12     1     2    1
    13     2     3    1
    14     3    20    1
    15    20    21   am
    16    21    22    2
    17    21    24    1
    18    24    25    1
    19    25    26   am
    20    26    27    2
    21    26    29    1
    22    29    30   ar
    23    30    31   ar
    24    31    32   ar
    25    32    33   ar
    26    33    35    1
    27    35    36    1
    28    35    37    1
    29    35    38    1
    30    33    34   ar
    31     3     4    1
    32     9    10    1
    33    10    11    1
    34    16    17   ar
    35    17    13   ar
    36    11     5    1
    37     4     1    1
    38    34    29   ar
    39     6    12    1
    40    20    23    1
    41    25    28    1
@<TRIPOS>MOLECULE
*****
 38 41 0 0 0
SMALL
GASTEIGER

@<TRIPOS>ATOM
      1 N         142.9548  139.5880  162.2875 N.3     1  UNL1       -0.2711
      2 C         144.0932  139.5540  161.3113 C.3     1  UNL1        0.0933
      3 C         143.1881  138.9534  160.2768 C.3     1  UNL1        0.1035
      4 C         142.0497  138.9875  161.2530 C.3     1  UNL1        0.0933
      5 C         142.4596  140.9340  166.5528 C.3     1  UNL1        0.1140
      6 O         142.9603  141.9939  167.4887 O.3     1  UNL1       -0.3821
      7 C         141.6974  139.7447  166.0484 C.3     1  UNL1        0.0331
      8 C         141.8624  139.2961  164.6266 C.3     1  UNL1        0.0187
      9 C         142.7898  140.0367  163.7093 C.3     1  UNL1        0.0578
     10 C         143.5520  141.2260  164.2137 C.3     1  UNL1        0.0187
     11 C         143.3870  141.6746  165.6355 C.3     1  UNL1        0.0331
     12 H         142.5479  141.8779  168.3590 H       1  UNL1        0.2107
     13 C         139.9845  140.4398  169.5015 C.ar    1  UNL1        0.0880
     14 N         141.1093  139.5367  169.9128 N.ar    1  UNL1       -0.2414
     15 C         142.1734  139.6119  168.8583 C.ar    1  UNL1        0.1034
     16 C         141.7062  140.5616  167.7952 C.ar    1  UNL1        0.0514
     17 S         140.3534  141.0732  168.1928 S.2     1  UNL1       -0.0728
     18 C         137.6845  139.5816  170.3524 C.3     1  UNL1        0.0073
     19 C         138.7138  140.6693  170.2649 C.3     1  UNL1        0.0526
     20 N         143.3531  138.5047  158.8550 N.am    1  UNL1       -0.3018
     21 C         143.2818  139.5053  157.7397 C.2     1  UNL1        0.2426
     22 O         143.0456  140.9545  158.0462 O.2     1  UNL1       -0.2733
     23 H         143.5081  137.5535  158.6539 H       1  UNL1        0.1495
     24 C         143.4468  139.0566  156.3180 C.3     1  UNL1        0.1759
     25 N         143.7548  137.6200  156.0159 N.am    1  UNL1       -0.2931
     26 C         142.6485  136.6076  155.9782 C.2     1  UNL1        0.2462
     27 O         141.2343  137.0319  156.2426 O.2     1  UNL1       -0.2701
     28 H         144.6830  137.3415  155.8423 H       1  UNL1        0.1502
     29 C         142.9565  135.1710  155.6761 C.ar    1  UNL1        0.0533
     30 C         142.4269  134.5377  154.4237 C.ar    1  UNL1        0.0045
     31 C         142.7349  133.1010  154.1217 C.ar    1  UNL1        0.0001
     32 C         143.5725  132.2977  155.0719 C.ar    1  UNL1        0.0039
     33 C         144.1022  132.9311  156.3243 C.ar    1  UNL1        0.0716
     34 C         143.7942  134.3676  156.6264 C.ar    1  UNL1        0.0084
     35 C         144.9398  132.1278  157.2746 C.3     1  UNL1        0.4186
     36 F         145.7775  131.3245  158.2249 F       1  UNL1       -0.1659
     37 F         144.5899  133.0751  158.3837 F       1  UNL1       -0.1659
     38 F         145.2897  131.1805  156.1654 F       1  UNL1       -0.1659
@<TRIPOS>BOND
     1    18    19    1
     2    19    13    1
     3    13    14   ar
     4    14    15   ar
     5    15    16   ar
     6    16     5    1
     7     5     6    1
     8     5     7    1
     9     7     8    1
    10     8     9    1
    11     9     1    1
    12     1     2    1
    13     2     3    1
    14     3    20    1
    15    20    21   am
    16    21    22    2
    17    21    24    1
    18    24    25    1
    19    25    26   am
    20    26    27    2
    21    26    29    1
    22    29    30   ar
    23    30    31   ar
    24    31    32   ar
    25    32    33   ar
    26    33    35    1
    27    35    36    1
    28    35    37    1
    29    35    38    1
    30    33    34   ar
    31     3     4    1
    32     9    10    1
    33    10    11    1
    34    16    17   ar
    35    17    13   ar
    36    11     5    1
    37     4     1    1
    38    34    29   ar
    39     6    12    1
    40    20    23    1
    41    25    28    1
@<TRIPOS>MOLECULE
*****
 38 41 0 0 0
SMALL
GASTEIGER

@<TRIPOS>ATOM
      1 N         143.3379  140.1611  161.8669 N.3     1  UNL1       -0.2711
      2 C         142.9587  140.5859  160.4791 C.3     1  UNL1        0.0933
      3 C         143.2755  139.2104  159.9715 C.3     1  UNL1        0.1035
      4 C         143.6547  138.7856  161.3593 C.3     1  UNL1        0.0933
      5 C         143.4701  142.1777  165.8876 C.3     1  UNL1        0.1140
      6 O         144.2268  143.2530  166.6094 O.3     1  UNL1       -0.3821
      7 C         142.4741  141.0865  165.6282 C.3     1  UNL1        0.0331
      8 C         142.4300  140.4143  164.2880 C.3     1  UNL1        0.0187
      9 C         143.3819  140.8333  163.2071 C.3     1  UNL1        0.0578
     10 C         144.3780  141.9245  163.4665 C.3     1  UNL1        0.0187
     11 C         144.4220  142.5967  164.8067 C.3     1  UNL1        0.0331
     12 H         143.8819  143.3410  167.5117 H       1  UNL1        0.2107
     13 C         141.0620  141.9615  168.9240 C.ar    1  UNL1        0.0880
     14 N         142.3793  142.1629  169.6125 N.ar    1  UNL1       -0.2414
     15 C         143.4417  142.2684  168.5589 C.ar    1  UNL1        0.1034
     16 C         142.7810  142.1322  167.2191 C.ar    1  UNL1        0.0514
     17 S         141.3102  141.9425  167.4448 S.2     1  UNL1       -0.0728
     18 C         139.1628  140.4375  169.8300 C.3     1  UNL1        0.0073
     19 C         139.7302  141.8063  169.5966 C.3     1  UNL1        0.0526
     20 N         143.2314  138.5382  158.6313 N.am    1  UNL1       -0.3018
     21 C         141.9110  138.2059  158.0020 C.2     1  UNL1        0.2426
     22 O         140.6346  138.5459  158.7129 O.2     1  UNL1       -0.2733
     23 H         144.0692  138.3151  158.1648 H       1  UNL1        0.1495
     24 C         141.8669  137.5337  156.6618 C.3     1  UNL1        0.1759
     25 N         141.6389  136.0539  156.5722 N.am    1  UNL1       -0.2931
     26 C         142.7582  135.1465  156.1551 C.2     1  UNL1        0.2462
     27 O         144.1054  135.7190  155.8277 O.2     1  UNL1       -0.2701
     28 H         140.7547  135.6781  156.7871 H       1  UNL1        0.1502
     29 C         142.5303  133.6666  156.0655 C.ar    1  UNL1        0.0533
     30 C         143.2840  132.7356  156.9684 C.ar    1  UNL1        0.0045
     31 C         143.0560  131.2557  156.8787 C.ar    1  UNL1        0.0001
     32 C         142.0743  130.7069  155.8863 C.ar    1  UNL1        0.0039
     33 C         141.3205  131.6379  154.9835 C.ar    1  UNL1        0.0716
     34 C         141.5485  133.1177  155.0731 C.ar    1  UNL1        0.0084
     35 C         140.3388  131.0890  153.9910 C.3     1  UNL1        0.4186
     36 F         139.3571  130.5402  152.9985 F       1  UNL1       -0.1659
     37 F         141.0439  131.8219  152.8883 F       1  UNL1       -0.1659
     38 F         139.6338  130.3563  155.0937 F       1  UNL1       -0.1659
@<TRIPOS>BOND
     1    18    19    1
     2    19    13    1
     3    13    14   ar
     4    14    15   ar
     5    15    16   ar
     6    16     5    1
     7     5     6    1
     8     5     7    1
     9     7     8    1
    10     8     9    1
    11     9     1    1
    12     1     2    1
    13     2     3    1
    14     3    20    1
    15    20    21   am
    16    21    22    2
    17    21    24    1
    18    24    25    1
    19    25    26   am
    20    26    27    2
    21    26    29    1
    22    29    30   ar
    23    30    31   ar
    24    31    32   ar
    25    32    33   ar
    26    33    35    1
    27    35    36    1
    28    35    37    1
    29    35    38    1
    30    33    34   ar
    31     3     4    1
    32     9    10    1
    33    10    11    1
    34    16    17   ar
    35    17    13   ar
    36    11     5    1
    37     4     1    1
    38    34    29   ar
    39     6    12    1
    40    20    23    1
    41    25    28    1
