@<TRIPOS>MOLECULE
*****
 39 43 0 0 0
SMALL
GASTEIGER

@<TRIPOS>ATOM
      1 C         142.3793  138.9674  155.0618 C.3     1  UNL1        0.0948
      2 C         141.8584  139.9510  156.0673 C.2     1  UNL1        0.2262
      3 O         141.1356  141.1822  155.6072 O.2     1  UNL1       -0.2749
      4 N         142.0603  139.7035  157.5329 N.am    1  UNL1       -0.2767
      5 C         142.7831  138.4723  157.9929 C.3     1  UNL1        0.1107
      6 C         142.9851  138.2248  159.4585 C.3     1  UNL1        0.0939
      7 N         142.4642  139.2084  160.4640 N.3     1  UNL1       -0.2695
      8 C         142.9981  138.3546  161.5758 C.3     1  UNL1        0.0726
      9 C         143.2000  138.1071  163.0414 C.3     1  UNL1        0.0236
     10 C         143.0158  138.5321  164.4681 C.3     1  UNL1        0.0452
     11 C         142.4950  139.5157  165.4736 C.ar    1  UNL1        0.0372
     12 C         142.9089  138.8852  166.7702 C.ar    1  UNL1       -0.0060
     13 C         143.6542  137.5925  166.9236 C.3     1  UNL1        0.0323
     14 C         142.4466  139.7742  167.8863 C.ar    1  UNL1        0.0438
     15 C         141.7470  140.9543  167.2797 C.ar    1  UNL1        0.0435
     16 N         141.7769  140.7945  165.7885 N.ar    1  UNL1       -0.3137
     17 C         141.0541  142.0258  165.3285 C.ar    1  UNL1        0.0646
     18 C         140.3366  143.3107  165.7454 C.ar    1  UNL1        0.0177
     19 C         139.6861  144.3900  164.9318 C.ar    1  UNL1        0.0072
     20 C         139.6769  144.2982  163.4346 C.ar    1  UNL1        0.0663
     21 C         140.3182  143.1271  162.7511 C.ar    1  UNL1        0.0505
     22 C         140.5202  142.8795  164.2166 C.ar    1  UNL1        0.0319
     23 N         140.5024  142.7020  161.3244 N.pl3   1  UNL1       -0.3314
     24 C         141.0233  141.7183  160.3189 C.3     1  UNL1        0.1050
     25 C         141.7414  140.4396  160.0040 C.3     1  UNL1        0.0972
     26 C         141.5395  140.6871  158.5384 C.3     1  UNL1        0.1110
     27 C         141.1732  142.0218  168.1635 C.3     1  UNL1        0.0446
     28 C         141.2989  141.9093  169.6539 C.3     1  UNL1        0.0128
     29 C         141.1657  142.2473  171.1092 C.3     1  UNL1        0.0008
     30 C         140.5530  143.2067  169.5527 C.3     1  UNL1        0.0008
     31 C         141.9986  140.7292  170.2606 C.3     1  UNL1        0.0695
     32 C         142.5724  139.6617  169.3768 C.2     1  UNL1        0.1739
     33 O         143.2720  138.4817  169.9835 O.2     1  UNL1       -0.2913
     34 H         140.0754  143.4104  160.7904 H       1  UNL1        0.1469
     35 C         139.0264  145.3774  162.6209 C.2     1  UNL1        0.2439
     36 N         139.8471  146.5168  162.0935 N.am    1  UNL1       -0.3253
     37 O         137.5552  145.3173  162.3346 O.2     1  UNL1       -0.2703
     38 H         140.8127  146.5562  162.2813 H       1  UNL1        0.1453
     39 H         139.4202  147.2251  161.5594 H       1  UNL1        0.1453
@<TRIPOS>BOND
     1     1     2    1
     2     2     3    2
     3     2     4   am
     4     4     5    1
     5     5     6    1
     6     6     7    1
     7     7     8    1
     8     8     9    1
     9     9    10    1
    10    10    11    1
    11    11    12   ar
    12    12    13    1
    13    12    14   ar
    14    14    15   ar
    15    15    16   ar
    16    16    17    1
    17    17    18   ar
    18    18    19   ar
    19    19    20   ar
    20    20    35    1
    21    35    36   am
    22    35    37    2
    23    20    21   ar
    24    21    22   ar
    25    21    23    1
    26    23    24    1
    27    25    24    1
    28    25    26    1
    29    15    27    1
    30    27    28    1
    31    28    29    1
    32    28    30    1
    33    28    31    1
    34    31    32    1
    35    32    33    2
    36    26     4    1
    37    25     7    1
    38    16    11   ar
    39    22    17   ar
    40    32    14    1
    41    36    38    1
    42    36    39    1
    43    23    34    1
@<TRIPOS>MOLECULE
*****
 39 43 0 0 0
SMALL
GASTEIGER

@<TRIPOS>ATOM
      1 C         140.5173  138.1264  155.1679 C.3     1  UNL1        0.0948
      2 C         141.1109  139.0664  156.1750 C.2     1  UNL1        0.2262
      3 O         142.1296  140.0800  155.7454 O.2     1  UNL1       -0.2749
      4 N         140.6857  138.9926  157.6115 N.am    1  UNL1       -0.2767
      5 C         139.6670  137.9789  158.0411 C.3     1  UNL1        0.1107
      6 C         139.2418  137.9052  159.4777 C.3     1  UNL1        0.0939
      7 N         139.8354  138.8452  160.4847 N.3     1  UNL1       -0.2695
      8 C         139.0018  138.2173  161.5621 C.3     1  UNL1        0.0726
      9 C         138.5766  138.1436  162.9987 C.3     1  UNL1        0.0236
     10 C         138.6738  138.6437  164.4096 C.3     1  UNL1        0.0452
     11 C         139.2674  139.5837  165.4166 C.ar    1  UNL1        0.0372
     12 C         138.5754  139.1650  166.6799 C.ar    1  UNL1       -0.0060
     13 C         137.5587  138.0694  166.8067 C.3     1  UNL1        0.0323
     14 C         139.0786  140.0342  167.7939 C.ar    1  UNL1        0.0438
     15 C         140.0816  140.9901  167.2193 C.ar    1  UNL1        0.0435
     16 N         140.1983  140.7116  165.7500 N.ar    1  UNL1       -0.3137
     17 C         141.2171  141.7254  165.3204 C.ar    1  UNL1        0.0646
     18 C         142.1364  142.8683  165.7542 C.ar    1  UNL1        0.0177
     19 C         143.0953  143.7181  164.9742 C.ar    1  UNL1        0.0072
     20 C         143.2650  143.4974  163.5003 C.ar    1  UNL1        0.0663
     21 C         142.4759  142.4269  162.8064 C.ar    1  UNL1        0.0505
     22 C         142.0507  142.3532  164.2430 C.ar    1  UNL1        0.0319
     23 N         142.3786  141.9268  161.3956 N.pl3   1  UNL1       -0.3314
     24 C         141.7850  140.9868  160.3885 C.3     1  UNL1        0.1050
     25 C         140.8541  139.8588  160.0551 C.3     1  UNL1        0.0972
     26 C         141.2793  139.9326  158.6186 C.3     1  UNL1        0.1110
     27 C         140.7591  141.9905  168.1082 C.3     1  UNL1        0.0446
     28 C         140.4336  142.0351  169.5717 C.3     1  UNL1        0.0128
     29 C         140.4595  142.4633  171.0091 C.3     1  UNL1        0.0008
     30 C         141.4456  143.1397  169.4963 C.3     1  UNL1        0.0008
     31 C         139.4305  141.0792  170.1464 C.3     1  UNL1        0.0695
     32 C         138.7531  140.0788  169.2575 C.2     1  UNL1        0.1739
     33 O         137.7500  139.1229  169.8322 O.2     1  UNL1       -0.2913
     34 H         143.0080  142.4845  160.8836 H       1  UNL1        0.1469
     35 C         144.2239  144.3471  162.7202 C.2     1  UNL1        0.2439
     36 N         144.3396  145.8129  163.0169 N.am    1  UNL1       -0.3253
     37 O         145.0670  143.7311  161.6432 O.2     1  UNL1       -0.2703
     38 H         143.7863  146.2172  163.7237 H       1  UNL1        0.1453
     39 H         144.9690  146.3706  162.5049 H       1  UNL1        0.1453
@<TRIPOS>BOND
     1     1     2    1
     2     2     3    2
     3     2     4   am
     4     4     5    1
     5     5     6    1
     6     6     7    1
     7     7     8    1
     8     8     9    1
     9     9    10    1
    10    10    11    1
    11    11    12   ar
    12    12    13    1
    13    12    14   ar
    14    14    15   ar
    15    15    16   ar
    16    16    17    1
    17    17    18   ar
    18    18    19   ar
    19    19    20   ar
    20    20    35    1
    21    35    36   am
    22    35    37    2
    23    20    21   ar
    24    21    22   ar
    25    21    23    1
    26    23    24    1
    27    25    24    1
    28    25    26    1
    29    15    27    1
    30    27    28    1
    31    28    29    1
    32    28    30    1
    33    28    31    1
    34    31    32    1
    35    32    33    2
    36    26     4    1
    37    25     7    1
    38    16    11   ar
    39    22    17   ar
    40    32    14    1
    41    36    38    1
    42    36    39    1
    43    23    34    1
@<TRIPOS>MOLECULE
*****
 39 43 0 0 0
SMALL
GASTEIGER

@<TRIPOS>ATOM
      1 C         144.3671  142.1318  154.2695 C.3     1  UNL1        0.0948
      2 C         143.3352  141.5886  155.2129 C.2     1  UNL1        0.2262
      3 O         142.1473  140.8452  154.6780 O.2     1  UNL1       -0.2749
      4 N         143.4911  141.7887  156.6913 N.am    1  UNL1       -0.2767
      5 C         144.6790  142.5321  157.2263 C.3     1  UNL1        0.1107
      6 C         144.8350  142.7323  158.7047 C.3     1  UNL1        0.0939
      7 N         143.8031  142.1890  159.6481 N.3     1  UNL1       -0.2695
      8 C         144.5790  142.7338  160.8105 C.3     1  UNL1        0.0726
      9 C         144.7350  142.9340  162.2888 C.3     1  UNL1        0.0236
     10 C         144.2293  142.7359  163.6871 C.3     1  UNL1        0.0452
     11 C         143.1974  142.1927  164.6305 C.ar    1  UNL1        0.0372
     12 C         143.7417  142.6126  165.9637 C.ar    1  UNL1       -0.0060
     13 C         145.0089  143.3809  166.1962 C.3     1  UNL1        0.0323
     14 C         142.7966  142.1293  167.0233 C.ar    1  UNL1        0.0438
     15 C         141.6679  141.4107  166.3452 C.ar    1  UNL1        0.0435
     16 N         141.9157  141.4499  164.8663 N.ar    1  UNL1       -0.3137
     17 C         140.7277  140.7065  164.3313 C.ar    1  UNL1        0.0646
     18 C         139.4338  139.9637  164.6685 C.ar    1  UNL1        0.0177
     19 C         138.4172  139.2969  163.7900 C.ar    1  UNL1        0.0072
     20 C         138.5982  139.2958  162.3009 C.ar    1  UNL1        0.0663
     21 C         139.7958  139.9615  161.6905 C.ar    1  UNL1        0.0505
     22 C         139.9518  140.1617  163.1688 C.ar    1  UNL1        0.0319
     23 N         140.3016  140.1596  160.2923 N.pl3   1  UNL1       -0.3314
     24 C         141.3336  140.7029  159.3489 C.3     1  UNL1        0.1050
     25 C         142.6152  141.4457  159.1131 C.3     1  UNL1        0.0972
     26 C         142.4592  141.2455  157.6347 C.3     1  UNL1        0.1110
     27 C         140.5606  140.8135  167.1619 C.3     1  UNL1        0.0446
     28 C         140.5817  140.9349  168.6568 C.3     1  UNL1        0.0128
     29 C         140.1601  140.7892  170.0889 C.3     1  UNL1        0.0008
     30 C         139.3067  140.1657  168.4760 C.3     1  UNL1        0.0008
     31 C         141.7103  141.6535  169.3350 C.3     1  UNL1        0.0695
     32 C         142.8177  142.2507  168.5183 C.2     1  UNL1        0.1739
     33 O         143.9463  142.9693  169.1965 O.2     1  UNL1       -0.2913
     34 H         139.6344  139.7220  159.7156 H       1  UNL1        0.1469
     35 C         137.5817  138.6291  161.4223 C.2     1  UNL1        0.2439
     36 N         137.1368  137.2279  161.7200 N.am    1  UNL1       -0.3253
     37 O         137.0101  139.3634  160.2458 O.2     1  UNL1       -0.2703
     38 H         137.5119  136.7459  162.4921 H       1  UNL1        0.1453
     39 H         136.4696  136.7902  161.1433 H       1  UNL1        0.1453
@<TRIPOS>BOND
     1     1     2    1
     2     2     3    2
     3     2     4   am
     4     4     5    1
     5     5     6    1
     6     6     7    1
     7     7     8    1
     8     8     9    1
     9     9    10    1
    10    10    11    1
    11    11    12   ar
    12    12    13    1
    13    12    14   ar
    14    14    15   ar
    15    15    16   ar
    16    16    17    1
    17    17    18   ar
    18    18    19   ar
    19    19    20   ar
    20    20    35    1
    21    35    36   am
    22    35    37    2
    23    20    21   ar
    24    21    22   ar
    25    21    23    1
    26    23    24    1
    27    25    24    1
    28    25    26    1
    29    15    27    1
    30    27    28    1
    31    28    29    1
    32    28    30    1
    33    28    31    1
    34    31    32    1
    35    32    33    2
    36    26     4    1
    37    25     7    1
    38    16    11   ar
    39    22    17   ar
    40    32    14    1
    41    36    38    1
    42    36    39    1
    43    23    34    1
@<TRIPOS>MOLECULE
*****
 39 43 0 0 0
SMALL
GASTEIGER

@<TRIPOS>ATOM
      1 C         142.3472  133.1565  153.3172 C.3     1  UNL1        0.0948
      2 C         141.4751  134.3272  153.6619 C.2     1  UNL1        0.2262
      3 O         140.3710  134.7389  152.7338 O.2     1  UNL1       -0.2749
      4 N         141.7069  135.0861  154.9348 N.am    1  UNL1       -0.2767
      5 C         142.8110  134.6743  155.8630 C.3     1  UNL1        0.1107
      6 C         143.0429  135.4333  157.1359 C.3     1  UNL1        0.0939
      7 N         142.1707  136.6039  157.4806 N.3     1  UNL1       -0.2695
      8 C         142.9420  136.8043  158.7514 C.3     1  UNL1        0.0726
      9 C         143.1739  137.5632  160.0243 C.3     1  UNL1        0.0236
     10 C         142.8042  138.6773  160.9583 C.3     1  UNL1        0.0452
     11 C         141.9321  139.8479  161.3030 C.ar    1  UNL1        0.0372
     12 C         142.5052  140.2874  162.6177 C.ar    1  UNL1       -0.0060
     13 C         143.6620  139.6530  163.3314 C.3     1  UNL1        0.0323
     14 C         141.7184  141.4725  163.0934 C.ar    1  UNL1        0.0438
     15 C         140.6590  141.7656  162.0727 C.ar    1  UNL1        0.0435
     16 N         140.7911  140.7615  160.9662 N.ar    1  UNL1       -0.3137
     17 C         139.6870  141.1733  160.0380 C.ar    1  UNL1        0.0646
     18 C         138.5411  142.1529  159.7790 C.ar    1  UNL1        0.0177
     19 C         137.5703  142.2623  158.6408 C.ar    1  UNL1        0.0072
     20 C         137.6416  141.2928  157.4984 C.ar    1  UNL1        0.0663
     21 C         138.6837  140.2139  157.4943 C.ar    1  UNL1        0.0505
     22 C         138.9156  140.9728  158.7672 C.ar    1  UNL1        0.0319
     23 N         139.0534  139.0999  156.5604 N.pl3   1  UNL1       -0.3314
     24 C         139.9257  137.9292  156.2156 C.3     1  UNL1        0.1050
     25 C         141.0667  137.0156  156.5525 C.3     1  UNL1        0.0972
     26 C         140.8348  136.2567  155.2796 C.3     1  UNL1        0.1110
     27 C         139.7109  142.9089  162.2827 C.3     1  UNL1        0.0446
     28 C         139.8223  143.7591  163.5134 C.3     1  UNL1        0.0128
     29 C         139.5306  144.8417  164.5098 C.3     1  UNL1        0.0008
     30 C         138.6616  144.4282  162.8388 C.3     1  UNL1        0.0008
     31 C         140.8817  143.4661  164.5341 C.3     1  UNL1        0.0695
     32 C         141.8297  142.3228  164.3241 C.2     1  UNL1        0.1739
     33 O         142.8891  142.0298  165.3448 O.2     1  UNL1       -0.2913
     34 H         138.4163  139.1717  155.8133 H       1  UNL1        0.1469
     35 C         136.6709  141.4022  156.3602 C.2     1  UNL1        0.2439
     36 N         136.2057  142.7513  155.8982 N.am    1  UNL1       -0.3253
     37 O         136.1654  140.1624  155.6838 O.2     1  UNL1       -0.2703
     38 H         136.5375  143.5650  156.3421 H       1  UNL1        0.1453
     39 H         135.5685  142.8231  155.1511 H       1  UNL1        0.1453
@<TRIPOS>BOND
     1     1     2    1
     2     2     3    2
     3     2     4   am
     4     4     5    1
     5     5     6    1
     6     6     7    1
     7     7     8    1
     8     8     9    1
     9     9    10    1
    10    10    11    1
    11    11    12   ar
    12    12    13    1
    13    12    14   ar
    14    14    15   ar
    15    15    16   ar
    16    16    17    1
    17    17    18   ar
    18    18    19   ar
    19    19    20   ar
    20    20    35    1
    21    35    36   am
    22    35    37    2
    23    20    21   ar
    24    21    22   ar
    25    21    23    1
    26    23    24    1
    27    25    24    1
    28    25    26    1
    29    15    27    1
    30    27    28    1
    31    28    29    1
    32    28    30    1
    33    28    31    1
    34    31    32    1
    35    32    33    2
    36    26     4    1
    37    25     7    1
    38    16    11   ar
    39    22    17   ar
    40    32    14    1
    41    36    38    1
    42    36    39    1
    43    23    34    1
@<TRIPOS>MOLECULE
*****
 39 43 0 0 0
SMALL
GASTEIGER

@<TRIPOS>ATOM
      1 C         142.6298  139.5739  169.4505 C.3     1  UNL1        0.0948
      2 C         142.2428  140.5553  168.3842 C.2     1  UNL1        0.2262
      3 O         141.8087  141.9405  168.7619 O.2     1  UNL1       -0.2749
      4 N         142.2898  140.1516  166.9404 N.am    1  UNL1       -0.2767
      5 C         142.7239  138.7664  166.5627 C.3     1  UNL1        0.1107
      6 C         142.7710  138.3626  165.1188 C.3     1  UNL1        0.0939
      7 N         142.3839  139.3441  164.0526 N.3     1  UNL1       -0.2695
      8 C         142.6618  138.3112  163.0010 C.3     1  UNL1        0.0726
      9 C         142.7088  137.9075  161.5571 C.3     1  UNL1        0.0236
     10 C         142.5125  138.2410  160.1079 C.3     1  UNL1        0.0452
     11 C         142.1255  139.2225  159.0416 C.ar    1  UNL1        0.0372
     12 C         142.3167  138.4163  157.7913 C.ar    1  UNL1       -0.0060
     13 C         142.7822  136.9919  157.7232 C.3     1  UNL1        0.0323
     14 C         141.9608  139.2844  156.6210 C.ar    1  UNL1        0.0438
     15 C         141.5496  140.6273  157.1480 C.ar    1  UNL1        0.0435
     16 N         141.6514  140.5889  158.6441 N.ar    1  UNL1       -0.3137
     17 C         141.2172  141.9742  159.0217 C.ar    1  UNL1        0.0646
     18 C         140.7379  143.3382  158.5222 C.ar    1  UNL1        0.0177
     19 C         140.3693  144.5899  159.2620 C.ar    1  UNL1        0.0072
     20 C         140.4466  144.6263  160.7595 C.ar    1  UNL1        0.0663
     21 C         140.8923  143.4109  161.5173 C.ar    1  UNL1        0.0505
     22 C         140.9394  143.0071  160.0734 C.ar    1  UNL1        0.0319
     23 N         141.0886  143.0773  162.9665 N.pl3   1  UNL1       -0.3314
     24 C         141.4757  142.0957  164.0327 C.3     1  UNL1        0.1050
     25 C         141.9498  140.7293  164.4303 C.3     1  UNL1        0.0972
     26 C         141.9028  141.1331  165.8742 C.3     1  UNL1        0.1110
     27 C         141.1356  141.7113  156.1976 C.3     1  UNL1        0.0446
     28 C         141.1328  141.4527  154.7201 C.3     1  UNL1        0.0128
     29 C         140.9673  141.6887  153.2481 C.3     1  UNL1        0.0008
     30 C         140.6641  142.8775  154.7359 C.3     1  UNL1        0.0008
     31 C         141.5441  140.1098  154.1930 C.3     1  UNL1        0.0695
     32 C         141.9581  139.0257  155.1435 C.2     1  UNL1        0.1739
     33 O         142.3693  137.6829  154.6164 O.2     1  UNL1       -0.2913
     34 H         140.8468  143.8988  163.4521 H       1  UNL1        0.1469
     35 C         140.0781  145.8779  161.4995 C.2     1  UNL1        0.2439
     36 N         140.8084  146.2489  162.7560 N.am    1  UNL1       -0.3253
     37 O         138.9792  146.7587  160.9829 O.2     1  UNL1       -0.2703
     38 H         141.5297  145.6709  163.0951 H       1  UNL1        0.1453
     39 H         140.5666  147.0704  163.2417 H       1  UNL1        0.1453
@<TRIPOS>BOND
     1     1     2    1
     2     2     3    2
     3     2     4   am
     4     4     5    1
     5     5     6    1
     6     6     7    1
     7     7     8    1
     8     8     9    1
     9     9    10    1
    10    10    11    1
    11    11    12   ar
    12    12    13    1
    13    12    14   ar
    14    14    15   ar
    15    15    16   ar
    16    16    17    1
    17    17    18   ar
    18    18    19   ar
    19    19    20   ar
    20    20    35    1
    21    35    36   am
    22    35    37    2
    23    20    21   ar
    24    21    22   ar
    25    21    23    1
    26    23    24    1
    27    25    24    1
    28    25    26    1
    29    15    27    1
    30    27    28    1
    31    28    29    1
    32    28    30    1
    33    28    31    1
    34    31    32    1
    35    32    33    2
    36    26     4    1
    37    25     7    1
    38    16    11   ar
    39    22    17   ar
    40    32    14    1
    41    36    38    1
    42    36    39    1
    43    23    34    1
@<TRIPOS>MOLECULE
*****
 39 43 0 0 0
SMALL
GASTEIGER

@<TRIPOS>ATOM
      1 C         136.9544  137.3249  152.0173 C.3     1  UNL1        0.0948
      2 C         137.3357  138.6322  152.6461 C.2     1  UNL1        0.2262
      3 O         136.9751  139.9224  151.9714 O.2     1  UNL1       -0.2749
      4 N         138.0777  138.6493  153.9497 N.am    1  UNL1       -0.2767
      5 C         138.4383  137.3591  154.6244 C.3     1  UNL1        0.1107
      6 C         139.1803  137.3762  155.9279 C.3     1  UNL1        0.0939
      7 N         139.5616  138.6835  156.5567 N.3     1  UNL1       -0.2695
      8 C         140.1982  137.9485  157.6989 C.3     1  UNL1        0.0726
      9 C         140.9401  137.9656  159.0024 C.3     1  UNL1        0.0236
     10 C         141.5887  138.7303  160.1181 C.3     1  UNL1        0.0452
     11 C         141.9701  140.0376  160.7469 C.ar    1  UNL1        0.0372
     12 C         142.6720  139.5904  161.9948 C.ar    1  UNL1       -0.0060
     13 C         142.8899  138.1694  162.4228 C.3     1  UNL1        0.0323
     14 C         143.1178  140.8138  162.7395 C.ar    1  UNL1        0.0438
     15 C         142.6914  142.0171  161.9520 C.ar    1  UNL1        0.0435
     16 N         141.9820  141.5373  160.7204 N.ar    1  UNL1       -0.3137
     17 C         141.6214  142.8276  160.0457 C.ar    1  UNL1        0.0646
     18 C         141.6825  144.3548  160.1045 C.ar    1  UNL1        0.0177
     19 C         141.1663  145.4033  159.1640 C.ar    1  UNL1        0.0072
     20 C         140.4465  144.9986  157.9118 C.ar    1  UNL1        0.0663
     21 C         140.2429  143.5455  157.5999 C.ar    1  UNL1        0.0505
     22 C         140.9849  143.5627  158.9035 C.ar    1  UNL1        0.0319
     23 N         139.5944  142.7809  156.4843 N.pl3   1  UNL1       -0.3314
     24 C         139.2130  141.4735  155.8555 C.3     1  UNL1        0.1050
     25 C         139.2010  139.9737  155.8820 C.3     1  UNL1        0.0972
     26 C         138.4591  139.9566  154.5785 C.3     1  UNL1        0.1110
     27 C         143.0041  143.3941  162.4579 C.3     1  UNL1        0.0446
     28 C         143.7432  143.5679  163.7515 C.3     1  UNL1        0.0128
     29 C         144.4154  144.2406  164.9115 C.3     1  UNL1        0.0008
     30 C         143.5503  145.0048  163.3668 C.3     1  UNL1        0.0008
     31 C         144.1697  142.3646  164.5391 C.3     1  UNL1        0.0695
     32 C         143.8569  140.9876  164.0332 C.2     1  UNL1        0.1739
     33 O         144.2833  139.7843  164.8208 O.2     1  UNL1       -0.2913
     34 H         139.2556  143.4689  155.8670 H       1  UNL1        0.1469
     35 C         139.9304  146.0469  156.9713 C.2     1  UNL1        0.2439
     36 N         139.3748  147.3312  157.5116 N.am    1  UNL1       -0.3253
     37 O         139.9697  145.8110  155.4904 O.2     1  UNL1       -0.2703
     38 H         139.3489  147.4860  158.4835 H       1  UNL1        0.1453
     39 H         139.0360  148.0192  156.8943 H       1  UNL1        0.1453
@<TRIPOS>BOND
     1     1     2    1
     2     2     3    2
     3     2     4   am
     4     4     5    1
     5     5     6    1
     6     6     7    1
     7     7     8    1
     8     8     9    1
     9     9    10    1
    10    10    11    1
    11    11    12   ar
    12    12    13    1
    13    12    14   ar
    14    14    15   ar
    15    15    16   ar
    16    16    17    1
    17    17    18   ar
    18    18    19   ar
    19    19    20   ar
    20    20    35    1
    21    35    36   am
    22    35    37    2
    23    20    21   ar
    24    21    22   ar
    25    21    23    1
    26    23    24    1
    27    25    24    1
    28    25    26    1
    29    15    27    1
    30    27    28    1
    31    28    29    1
    32    28    30    1
    33    28    31    1
    34    31    32    1
    35    32    33    2
    36    26     4    1
    37    25     7    1
    38    16    11   ar
    39    22    17   ar
    40    32    14    1
    41    36    38    1
    42    36    39    1
    43    23    34    1
@<TRIPOS>MOLECULE
*****
 39 43 0 0 0
SMALL
GASTEIGER

@<TRIPOS>ATOM
      1 C         137.3262  139.2062  170.6001 C.3     1  UNL1        0.0948
      2 C         138.3813  140.0045  169.8935 C.2     1  UNL1        0.2262
      3 O         139.1785  141.0273  170.6474 O.2     1  UNL1       -0.2749
      4 N         138.6393  139.7800  168.4331 N.am    1  UNL1       -0.2767
      5 C         137.8422  138.7572  167.6792 C.3     1  UNL1        0.1107
      6 C         138.1002  138.5327  166.2187 C.3     1  UNL1        0.0939
      7 N         139.1553  139.3310  165.5121 N.3     1  UNL1       -0.2695
      8 C         138.8440  138.6109  164.2336 C.3     1  UNL1        0.0726
      9 C         139.1020  138.3863  162.7731 C.3     1  UNL1        0.0236
     10 C         139.8602  138.7176  161.5219 C.3     1  UNL1        0.0452
     11 C         140.9153  139.5159  160.8153 C.ar    1  UNL1        0.0372
     12 C         140.8302  138.9775  159.4178 C.ar    1  UNL1       -0.0060
     13 C         139.8928  137.9082  158.9406 C.3     1  UNL1        0.0323
     14 C         141.8471  139.6962  158.5815 C.ar    1  UNL1        0.0438
     15 C         142.5607  140.6788  159.4620 C.ar    1  UNL1        0.0435
     16 N         141.9848  140.5673  160.8426 N.ar    1  UNL1       -0.3137
     17 C         142.7820  141.5902  161.5965 C.ar    1  UNL1        0.0646
     18 C         143.8873  142.6454  161.5282 C.ar    1  UNL1        0.0177
     19 C         144.4611  143.5476  162.5801 C.ar    1  UNL1        0.0072
     20 C         143.9351  143.4924  163.9838 C.ar    1  UNL1        0.0663
     21 C         142.8353  142.5349  164.3355 C.ar    1  UNL1        0.0505
     22 C         143.0933  142.3104  162.8750 C.ar    1  UNL1        0.0319
     23 N         142.0772  142.2036  165.5867 N.pl3   1  UNL1       -0.3314
     24 C         141.0219  141.4052  166.2933 C.3     1  UNL1        0.1050
     25 C         139.9525  140.3538  166.2660 C.3     1  UNL1        0.0972
     26 C         139.6945  140.5783  167.7264 C.3     1  UNL1        0.1110
     27 C         143.6426  141.5480  158.8929 C.3     1  UNL1        0.0446
     28 C         144.0110  141.4346  157.4434 C.3     1  UNL1        0.0128
     29 C         144.7117  141.6937  156.1426 C.3     1  UNL1        0.0008
     30 C         144.9679  142.5072  157.8721 C.3     1  UNL1        0.0008
     31 C         143.2974  140.4520  156.5628 C.3     1  UNL1        0.0695
     32 C         142.2155  139.5828  157.1319 C.2     1  UNL1        0.1739
     33 O         141.5019  138.6002  156.2513 O.2     1  UNL1       -0.2913
     34 H         142.4537  142.7957  166.2771 H       1  UNL1        0.1469
     35 C         144.5089  144.3945  165.0359 C.2     1  UNL1        0.2439
     36 N         145.2250  143.8090  166.2167 N.am    1  UNL1       -0.3253
     37 O         144.3665  145.8822  164.9072 O.2     1  UNL1       -0.2703
     38 H         145.3185  142.8326  166.3012 H       1  UNL1        0.1453
     39 H         145.6016  144.4011  166.9072 H       1  UNL1        0.1453
@<TRIPOS>BOND
     1     1     2    1
     2     2     3    2
     3     2     4   am
     4     4     5    1
     5     5     6    1
     6     6     7    1
     7     7     8    1
     8     8     9    1
     9     9    10    1
    10    10    11    1
    11    11    12   ar
    12    12    13    1
    13    12    14   ar
    14    14    15   ar
    15    15    16   ar
    16    16    17    1
    17    17    18   ar
    18    18    19   ar
    19    19    20   ar
    20    20    35    1
    21    35    36   am
    22    35    37    2
    23    20    21   ar
    24    21    22   ar
    25    21    23    1
    26    23    24    1
    27    25    24    1
    28    25    26    1
    29    15    27    1
    30    27    28    1
    31    28    29    1
    32    28    30    1
    33    28    31    1
    34    31    32    1
    35    32    33    2
    36    26     4    1
    37    25     7    1
    38    16    11   ar
    39    22    17   ar
    40    32    14    1
    41    36    38    1
    42    36    39    1
    43    23    34    1
@<TRIPOS>MOLECULE
*****
 39 43 0 0 0
SMALL
GASTEIGER

@<TRIPOS>ATOM
      1 C         135.8500  144.0072  152.7167 C.3     1  UNL1        0.0948
      2 C         136.7479  143.4666  153.7898 C.2     1  UNL1        0.2262
      3 O         137.0080  144.2737  155.0271 O.2     1  UNL1       -0.2749
      4 N         137.3858  142.1190  153.6255 N.am    1  UNL1       -0.2767
      5 C         137.1258  141.3119  152.3883 C.3     1  UNL1        0.1107
      6 C         137.7636  139.9642  152.2240 C.3     1  UNL1        0.0939
      7 N         138.6616  139.4237  153.2971 N.3     1  UNL1       -0.2695
      8 C         138.8797  138.1797  152.4879 C.3     1  UNL1        0.0726
      9 C         139.5176  136.8320  152.3236 C.3     1  UNL1        0.0236
     10 C         140.4043  135.7418  152.8483 C.3     1  UNL1        0.0452
     11 C         141.3022  135.2013  153.9214 C.ar    1  UNL1        0.0372
     12 C         141.7023  133.8721  153.3530 C.ar    1  UNL1       -0.0060
     13 C         141.2636  133.3093  152.0336 C.3     1  UNL1        0.0323
     14 C         142.6181  133.2045  154.3356 C.ar    1  UNL1        0.0438
     15 C         142.7841  134.1211  155.5114 C.ar    1  UNL1        0.0435
     16 N         141.9708  135.3552  155.2553 N.ar    1  UNL1       -0.3137
     17 C         142.2309  136.1623  156.4927 C.ar    1  UNL1        0.0646
     18 C         142.9532  136.2302  157.8393 C.ar    1  UNL1        0.0177
     19 C         142.9750  137.2919  158.8986 C.ar    1  UNL1        0.0072
     20 C         142.1858  138.5538  158.7121 C.ar    1  UNL1        0.0663
     21 C         141.3749  138.7540  157.4661 C.ar    1  UNL1        0.0505
     22 C         142.0128  137.4064  157.3019 C.ar    1  UNL1        0.0319
     23 N         140.4882  139.8441  156.9414 N.pl3   1  UNL1       -0.3314
     24 C         139.5902  140.3847  155.8683 C.3     1  UNL1        0.1050
     25 C         138.9216  140.2308  154.5343 C.3     1  UNL1        0.0972
     26 C         138.2838  141.5784  154.6986 C.3     1  UNL1        0.1110
     27 C         143.6543  133.7135  156.6631 C.3     1  UNL1        0.0446
     28 C         144.3586  132.3894  156.6392 C.3     1  UNL1        0.0128
     29 C         145.2250  131.2456  157.0763 C.3     1  UNL1        0.0008
     30 C         144.8255  132.9088  157.9668 C.3     1  UNL1        0.0008
     31 C         144.1926  131.4728  155.4635 C.3     1  UNL1        0.0695
     32 C         143.3224  131.8803  154.3117 C.2     1  UNL1        0.1739
     33 O         143.1564  130.9637  153.1360 O.2     1  UNL1       -0.2913
     34 H         140.5024  140.5410  157.6367 H       1  UNL1        0.1469
     35 C         142.2075  139.6156  159.7714 C.2     1  UNL1        0.2439
     36 N         143.3702  139.7106  160.7143 N.am    1  UNL1       -0.3253
     37 O         141.0666  140.5824  159.8878 O.2     1  UNL1       -0.2703
     38 H         144.1190  139.0761  160.6380 H       1  UNL1        0.1453
     39 H         143.3844  140.4075  161.4096 H       1  UNL1        0.1453
@<TRIPOS>BOND
     1     1     2    1
     2     2     3    2
     3     2     4   am
     4     4     5    1
     5     5     6    1
     6     6     7    1
     7     7     8    1
     8     8     9    1
     9     9    10    1
    10    10    11    1
    11    11    12   ar
    12    12    13    1
    13    12    14   ar
    14    14    15   ar
    15    15    16   ar
    16    16    17    1
    17    17    18   ar
    18    18    19   ar
    19    19    20   ar
    20    20    35    1
    21    35    36   am
    22    35    37    2
    23    20    21   ar
    24    21    22   ar
    25    21    23    1
    26    23    24    1
    27    25    24    1
    28    25    26    1
    29    15    27    1
    30    27    28    1
    31    28    29    1
    32    28    30    1
    33    28    31    1
    34    31    32    1
    35    32    33    2
    36    26     4    1
    37    25     7    1
    38    16    11   ar
    39    22    17   ar
    40    32    14    1
    41    36    38    1
    42    36    39    1
    43    23    34    1
@<TRIPOS>MOLECULE
*****
 39 43 0 0 0
SMALL
GASTEIGER

@<TRIPOS>ATOM
      1 C         142.5948  142.6714  169.3661 C.3     1  UNL1        0.0948
      2 C         141.7976  142.1274  168.2179 C.2     1  UNL1        0.2262
      3 O         140.4502  141.5157  168.4635 O.2     1  UNL1       -0.2749
      4 N         142.3478  142.1951  166.8241 N.am    1  UNL1       -0.2767
      5 C         143.6951  142.8068  166.5785 C.3     1  UNL1        0.1107
      6 C         144.2453  142.8745  165.1846 C.3     1  UNL1        0.0939
      7 N         143.4481  142.3305  164.0364 N.3     1  UNL1       -0.2695
      8 C         144.5437  142.7227  163.0899 C.3     1  UNL1        0.0726
      9 C         145.0938  142.7904  161.6961 C.3     1  UNL1        0.0236
     10 C         144.9512  142.5154  160.2284 C.3     1  UNL1        0.0452
     11 C         144.1540  141.9714  159.0802 C.ar    1  UNL1        0.0372
     12 C         145.0599  142.2419  157.9156 C.ar    1  UNL1       -0.0060
     13 C         146.4075  142.8974  157.9806 C.3     1  UNL1        0.0323
     14 C         144.3815  141.7419  156.6748 C.ar    1  UNL1        0.0438
     15 C         143.0564  141.1622  157.0723 C.ar    1  UNL1        0.0435
     16 N         142.9158  141.3041  158.5590 N.ar    1  UNL1       -0.3137
     17 C         141.5683  140.6924  158.8046 C.ar    1  UNL1        0.0646
     18 C         140.3445  140.0178  158.1826 C.ar    1  UNL1        0.0177
     19 C         139.0800  139.4981  158.7996 C.ar    1  UNL1        0.0072
     20 C         138.8690  139.6054  160.2808 C.ar    1  UNL1        0.0663
     21 C         139.9226  140.2324  161.1450 C.ar    1  UNL1        0.0505
     22 C         140.4727  140.3001  159.7512 C.ar    1  UNL1        0.0319
     23 N         140.0652  140.5075  162.6126 N.pl3   1  UNL1       -0.3314
     24 C         140.8625  141.0515  163.7609 C.3     1  UNL1        0.1050
     25 C         142.1007  141.7188  164.2820 C.3     1  UNL1        0.0972
     26 C         141.5506  141.6511  165.6758 C.3     1  UNL1        0.1110
     27 C         142.1490  140.5802  156.0293 C.3     1  UNL1        0.0446
     28 C         142.5667  140.5778  154.5888 C.3     1  UNL1        0.0128
     29 C         142.5184  140.3461  153.1076 C.3     1  UNL1        0.0008
     30 C         141.2248  139.9177  154.4719 C.3     1  UNL1        0.0008
     31 C         143.8919  141.1574  154.1911 C.3     1  UNL1        0.0695
     32 C         144.7992  141.7394  155.2341 C.2     1  UNL1        0.1739
     33 O         146.1243  142.3190  154.8364 O.2     1  UNL1       -0.2913
     34 H         139.2353  140.1664  163.0176 H       1  UNL1        0.1469
     35 C         137.6044  139.0858  160.8979 C.2     1  UNL1        0.2439
     36 N         136.2784  139.4079  160.2750 N.am    1  UNL1       -0.3253
     37 O         137.6658  138.2440  162.1379 O.2     1  UNL1       -0.2703
     38 H         136.2381  139.9605  159.4611 H       1  UNL1        0.1453
     39 H         135.4485  139.0669  160.6800 H       1  UNL1        0.1453
@<TRIPOS>BOND
     1     1     2    1
     2     2     3    2
     3     2     4   am
     4     4     5    1
     5     5     6    1
     6     6     7    1
     7     7     8    1
     8     8     9    1
     9     9    10    1
    10    10    11    1
    11    11    12   ar
    12    12    13    1
    13    12    14   ar
    14    14    15   ar
    15    15    16   ar
    16    16    17    1
    17    17    18   ar
    18    18    19   ar
    19    19    20   ar
    20    20    35    1
    21    35    36   am
    22    35    37    2
    23    20    21   ar
    24    21    22   ar
    25    21    23    1
    26    23    24    1
    27    25    24    1
    28    25    26    1
    29    15    27    1
    30    27    28    1
    31    28    29    1
    32    28    30    1
    33    28    31    1
    34    31    32    1
    35    32    33    2
    36    26     4    1
    37    25     7    1
    38    16    11   ar
    39    22    17   ar
    40    32    14    1
    41    36    38    1
    42    36    39    1
    43    23    34    1
