@<TRIPOS>MOLECULE
*****
 31 34 0 0 0
SMALL
GASTEIGER

@<TRIPOS>ATOM
      1 C         141.2107  140.2535  162.5425 C.ar    1  UNL1        0.1318
      2 C         140.4581  141.5001  162.1825 C.ar    1  UNL1        0.1125
      3 N         140.3931  141.5865  160.6864 N.ar    1  UNL1       -0.2279
      4 C         141.1054  140.3932  160.1217 C.ar    1  UNL1        0.1416
      5 N         141.6107  139.5694  161.2689 N.ar    1  UNL1       -0.3005
      6 C         142.3699  138.3028  161.0056 C.3     1  UNL1        0.1299
      7 C         142.6237  137.8600  159.5951 C.3     1  UNL1        0.1184
      8 N         142.1184  138.6839  158.4480 N.am    1  UNL1       -0.2694
      9 C         142.3722  138.2410  157.0374 C.2     1  UNL1        0.2419
     10 O         141.8669  139.0648  155.8903 O.2     1  UNL1       -0.2734
     11 C         141.3593  139.9505  158.7113 C.3     1  UNL1        0.1578
     12 C         139.8733  142.4870  163.1488 C.ar    1  UNL1        0.0205
     13 C         140.7019  143.6367  163.6404 C.ar    1  UNL1        0.0039
     14 C         140.1171  144.6236  164.6068 C.ar    1  UNL1        0.0297
     15 C         138.7036  144.4609  165.0816 C.ar    1  UNL1        0.1401
     16 F         138.1187  145.4479  166.0480 F       1  UNL1       -0.2042
     17 C         137.8749  143.3113  164.5901 C.ar    1  UNL1        0.0297
     18 C         138.4598  142.3244  163.6237 C.ar    1  UNL1        0.0039
     19 C         143.1314  136.9744  156.7741 C.3     1  UNL1        0.1517
     20 N         144.2737  136.9729  155.8019 N.3     1  UNL1       -0.3135
     21 H         143.9212  137.1590  154.8629 H       1  UNL1        0.1193
     22 H         144.7330  136.0624  155.8183 H       1  UNL1        0.1193
     23 N         141.5105  139.7749  163.9321 N.pl3   1  UNL1       -0.2980
     24 H         142.4366  139.7821  164.2660 H       1  UNL1        0.1536
     25 C         137.0662  137.8173  167.4556 C.3     1  UNL1        0.0310
     26 C         138.1773  138.3067  166.5747 C.ar    1  UNL1       -0.0218
     27 C         138.5532  137.5364  165.3438 C.ar    1  UNL1       -0.0030
     28 C         139.6643  138.0258  164.4629 C.ar    1  UNL1        0.0143
     29 C         140.3995  139.2855  164.8129 C.ar    1  UNL1        0.0493
     30 C         140.0235  140.0559  166.0439 C.ar    1  UNL1        0.0143
     31 C         138.9124  139.5665  166.9248 C.ar    1  UNL1       -0.0030
@<TRIPOS>BOND
     1    25    26    1
     2    26    27   ar
     3    27    28   ar
     4    28    29   ar
     5    29    23    1
     6    23     1    1
     7     1     2   ar
     8     2    12    1
     9    12    13   ar
    10    13    14   ar
    11    14    15   ar
    12    15    16    1
    13    15    17   ar
    14    17    18   ar
    15     2     3   ar
    16     3     4   ar
    17     4     5   ar
    18     5     6    1
    19     6     7    1
    20     7     8    1
    21     8     9   am
    22     9    10    2
    23     9    19    1
    24    19    20    1
    25     8    11    1
    26    29    30   ar
    27    30    31   ar
    28    31    26   ar
    29     5     1   ar
    30    18    12   ar
    31    11     4    1
    32    23    24    1
    33    20    21    1
    34    20    22    1
@<TRIPOS>MOLECULE
*****
 31 34 0 0 0
SMALL
GASTEIGER

@<TRIPOS>ATOM
      1 C         141.3392  140.6002  162.9525 C.ar    1  UNL1        0.1318
      2 C         139.8716  140.3611  163.1496 C.ar    1  UNL1        0.1125
      3 N         139.1308  141.1364  162.1007 N.ar    1  UNL1       -0.2279
      4 C         140.1405  141.8546  161.2554 C.ar    1  UNL1        0.1416
      5 N         141.5055  141.5232  161.7818 N.ar    1  UNL1       -0.3005
      6 C         142.7234  142.1047  161.1272 C.3     1  UNL1        0.1299
      7 C         142.5763  143.0176  159.9462 C.3     1  UNL1        0.1184
      8 N         141.2114  143.3490  159.4197 N.am    1  UNL1       -0.2694
      9 C         141.0644  144.2619  158.2386 C.2     1  UNL1        0.2419
     10 O         139.6995  144.5933  157.7121 O.2     1  UNL1       -0.2734
     11 C         139.9935  142.7675  160.0743 C.3     1  UNL1        0.1578
     12 C         139.2533  139.4983  164.2094 C.ar    1  UNL1        0.0205
     13 C         138.5490  140.1293  165.3737 C.ar    1  UNL1        0.0039
     14 C         137.9307  139.2665  166.4336 C.ar    1  UNL1        0.0297
     15 C         138.0167  137.7727  166.3291 C.ar    1  UNL1        0.1401
     16 F         137.3984  136.9098  167.3889 F       1  UNL1       -0.2042
     17 C         138.7210  137.1416  165.1648 C.ar    1  UNL1        0.0297
     18 C         139.3393  138.0044  164.1049 C.ar    1  UNL1        0.0039
     19 C         142.2823  144.8434  157.5840 C.3     1  UNL1        0.1517
     20 N         142.5777  146.3082  157.7161 N.3     1  UNL1       -0.3135
     21 H         141.8541  146.8454  157.2382 H       1  UNL1        0.1193
     22 H         143.4849  146.5113  157.2965 H       1  UNL1        0.1193
     23 N         142.4463  140.0184  163.7807 N.pl3   1  UNL1       -0.2980
     24 H         143.1132  139.4258  163.3645 H       1  UNL1        0.1536
     25 C         142.8104  141.3028  169.6303 C.3     1  UNL1        0.0310
     26 C         142.7194  140.9817  168.1679 C.ar    1  UNL1       -0.0218
     27 C         142.8820  142.0708  167.1493 C.ar    1  UNL1       -0.0030
     28 C         142.7910  141.7497  165.6869 C.ar    1  UNL1        0.0143
     29 C         142.5373  140.3395  165.2430 C.ar    1  UNL1        0.0493
     30 C         142.3746  139.2505  166.2617 C.ar    1  UNL1        0.0143
     31 C         142.4657  139.5715  167.7240 C.ar    1  UNL1       -0.0030
@<TRIPOS>BOND
     1    25    26    1
     2    26    27   ar
     3    27    28   ar
     4    28    29   ar
     5    29    23    1
     6    23     1    1
     7     1     2   ar
     8     2    12    1
     9    12    13   ar
    10    13    14   ar
    11    14    15   ar
    12    15    16    1
    13    15    17   ar
    14    17    18   ar
    15     2     3   ar
    16     3     4   ar
    17     4     5   ar
    18     5     6    1
    19     6     7    1
    20     7     8    1
    21     8     9   am
    22     9    10    2
    23     9    19    1
    24    19    20    1
    25     8    11    1
    26    29    30   ar
    27    30    31   ar
    28    31    26   ar
    29     5     1   ar
    30    18    12   ar
    31    11     4    1
    32    23    24    1
    33    20    21    1
    34    20    22    1
@<TRIPOS>MOLECULE
*****
 31 34 0 0 0
SMALL
GASTEIGER

@<TRIPOS>ATOM
      1 C         142.1611  139.2898  163.3176 C.ar    1  UNL1        0.1318
      2 C         140.6627  139.3023  163.2499 C.ar    1  UNL1        0.1125
      3 N         140.2649  139.6756  161.8526 N.ar    1  UNL1       -0.2279
      4 C         141.5175  139.8938  161.0567 C.ar    1  UNL1        0.1416
      5 N         142.6894  139.6554  161.9621 N.ar    1  UNL1       -0.3005
      6 C         144.0862  139.8019  161.4354 C.3     1  UNL1        0.1299
      7 C         144.3110  140.1869  160.0032 C.3     1  UNL1        0.1184
      8 N         143.1391  140.4253  159.0978 N.am    1  UNL1       -0.2694
      9 C         143.3640  140.8103  157.6655 C.2     1  UNL1        0.2419
     10 O         142.1921  141.0488  156.7601 O.2     1  UNL1       -0.2734
     11 C         141.7424  140.2788  159.6245 C.3     1  UNL1        0.1578
     12 C         139.7264  138.9954  164.3809 C.ar    1  UNL1        0.0205
     13 C         139.2319  140.1007  165.2662 C.ar    1  UNL1        0.0039
     14 C         138.2957  139.7938  166.3972 C.ar    1  UNL1        0.0297
     15 C         137.8539  138.3816  166.6430 C.ar    1  UNL1        0.1401
     16 F         136.9176  138.0747  167.7740 F       1  UNL1       -0.2042
     17 C         138.3484  137.2763  165.7577 C.ar    1  UNL1        0.0297
     18 C         139.2846  137.5832  164.6267 C.ar    1  UNL1        0.0039
     19 C         144.7608  140.9569  157.1387 C.3     1  UNL1        0.1517
     20 N         145.4129  139.8163  156.4149 N.3     1  UNL1       -0.3135
     21 H         145.5549  139.0401  157.0613 H       1  UNL1        0.1193
     22 H         146.3137  140.1193  156.0444 H       1  UNL1        0.1193
     23 N         142.9864  138.9682  164.5282 N.pl3   1  UNL1       -0.2980
     24 H         143.5662  138.1726  164.5314 H       1  UNL1        0.1536
     25 C         142.7534  142.5302  169.3508 C.3     1  UNL1        0.0310
     26 C         142.8117  141.6397  168.1451 C.ar    1  UNL1       -0.0218
     27 C         143.0899  142.2257  166.7927 C.ar    1  UNL1       -0.0030
     28 C         143.1481  141.3352  165.5870 C.ar    1  UNL1        0.0143
     29 C         142.9281  139.8587  165.7338 C.ar    1  UNL1        0.0493
     30 C         142.6499  139.2727  167.0863 C.ar    1  UNL1        0.0143
     31 C         142.5916  140.1632  168.2920 C.ar    1  UNL1       -0.0030
@<TRIPOS>BOND
     1    25    26    1
     2    26    27   ar
     3    27    28   ar
     4    28    29   ar
     5    29    23    1
     6    23     1    1
     7     1     2   ar
     8     2    12    1
     9    12    13   ar
    10    13    14   ar
    11    14    15   ar
    12    15    16    1
    13    15    17   ar
    14    17    18   ar
    15     2     3   ar
    16     3     4   ar
    17     4     5   ar
    18     5     6    1
    19     6     7    1
    20     7     8    1
    21     8     9   am
    22     9    10    2
    23     9    19    1
    24    19    20    1
    25     8    11    1
    26    29    30   ar
    27    30    31   ar
    28    31    26   ar
    29     5     1   ar
    30    18    12   ar
    31    11     4    1
    32    23    24    1
    33    20    21    1
    34    20    22    1
@<TRIPOS>MOLECULE
*****
 31 34 0 0 0
SMALL
GASTEIGER

@<TRIPOS>ATOM
      1 C         141.3780  138.2029  161.9754 C.ar    1  UNL1        0.1318
      2 C         139.9236  138.4096  162.2788 C.ar    1  UNL1        0.1125
      3 N         139.1885  138.5135  160.9754 N.ar    1  UNL1       -0.2279
      4 C         140.1885  138.3711  159.8665 C.ar    1  UNL1        0.1416
      5 N         141.5417  138.1791  160.4845 N.ar    1  UNL1       -0.3005
      6 C         142.7481  138.0074  159.6099 C.3     1  UNL1        0.1299
      7 C         142.6013  138.0277  158.1173 C.3     1  UNL1        0.1184
      8 N         141.2481  138.2197  157.4993 N.am    1  UNL1       -0.2694
      9 C         141.1013  138.2400  156.0065 C.2     1  UNL1        0.2419
     10 O         139.7481  138.4320  155.3885 O.2     1  UNL1       -0.2734
     11 C         140.0417  138.3914  158.3739 C.3     1  UNL1        0.1578
     12 C         139.3118  138.4970  163.6456 C.ar    1  UNL1        0.0205
     13 C         138.9243  139.8316  164.2098 C.ar    1  UNL1        0.0039
     14 C         138.3125  139.9191  165.5766 C.ar    1  UNL1        0.0297
     15 C         138.0883  138.6718  166.3791 C.ar    1  UNL1        0.1401
     16 F         137.4765  138.7592  167.7459 F       1  UNL1       -0.2042
     17 C         138.4758  137.3372  165.8149 C.ar    1  UNL1        0.0297
     18 C         139.0876  137.2498  164.4481 C.ar    1  UNL1        0.0039
     19 C         142.3077  138.0683  155.1319 C.3     1  UNL1        0.1517
     20 N         142.6914  136.7031  154.6429 N.3     1  UNL1       -0.3135
     21 H         142.9711  136.1244  155.4349 H       1  UNL1        0.1193
     22 H         143.4697  136.7827  153.9884 H       1  UNL1        0.1193
     23 N         142.4760  138.0473  162.9855 N.pl3   1  UNL1       -0.2980
     24 H         143.1583  137.3475  162.8669 H       1  UNL1        0.1536
     25 C         142.7096  141.6890  167.7481 C.3     1  UNL1        0.0310
     26 C         142.6512  140.7786  166.5574 C.ar    1  UNL1       -0.0218
     27 C         142.6647  141.3537  165.1721 C.ar    1  UNL1       -0.0030
     28 C         142.6063  140.4433  163.9815 C.ar    1  UNL1        0.0143
     29 C         142.5344  138.9577  164.1760 C.ar    1  UNL1        0.0493
     30 C         142.5209  138.3826  165.5614 C.ar    1  UNL1        0.0143
     31 C         142.5793  139.2930  166.7521 C.ar    1  UNL1       -0.0030
@<TRIPOS>BOND
     1    25    26    1
     2    26    27   ar
     3    27    28   ar
     4    28    29   ar
     5    29    23    1
     6    23     1    1
     7     1     2   ar
     8     2    12    1
     9    12    13   ar
    10    13    14   ar
    11    14    15   ar
    12    15    16    1
    13    15    17   ar
    14    17    18   ar
    15     2     3   ar
    16     3     4   ar
    17     4     5   ar
    18     5     6    1
    19     6     7    1
    20     7     8    1
    21     8     9   am
    22     9    10    2
    23     9    19    1
    24    19    20    1
    25     8    11    1
    26    29    30   ar
    27    30    31   ar
    28    31    26   ar
    29     5     1   ar
    30    18    12   ar
    31    11     4    1
    32    23    24    1
    33    20    21    1
    34    20    22    1
@<TRIPOS>MOLECULE
*****
 31 34 0 0 0
SMALL
GASTEIGER

@<TRIPOS>ATOM
      1 C         140.5089  142.2457  162.6190 C.ar    1  UNL1        0.1318
      2 C         139.4720  141.1700  162.4858 C.ar    1  UNL1        0.1125
      3 N         138.8384  141.3020  161.1326 N.ar    1  UNL1       -0.2279
      4 C         139.4838  142.4592  160.4295 C.ar    1  UNL1        0.1416
      5 N         140.5162  143.0425  161.3481 N.ar    1  UNL1       -0.3005
      6 C         141.3295  144.2237  160.9087 C.3     1  UNL1        0.1299
      7 C         141.1104  144.8217  159.5506 C.3     1  UNL1        0.1184
      8 N         140.0780  144.2384  158.6320 N.am    1  UNL1       -0.2694
      9 C         139.8589  144.8365  157.2739 C.2     1  UNL1        0.2419
     10 O         138.8264  144.2532  156.3552 O.2     1  UNL1       -0.2734
     11 C         139.2646  143.0572  159.0714 C.3     1  UNL1        0.1578
     12 C         139.1289  140.1428  163.5236 C.ar    1  UNL1        0.0205
     13 C         139.5256  138.7105  163.3211 C.ar    1  UNL1        0.0039
     14 C         139.1825  137.6832  164.3589 C.ar    1  UNL1        0.0297
     15 C         138.4427  138.0883  165.5993 C.ar    1  UNL1        0.1401
     16 F         138.0997  137.0610  166.6371 F       1  UNL1       -0.2042
     17 C         138.0460  139.5206  165.8018 C.ar    1  UNL1        0.0297
     18 C         138.3891  140.5478  164.7640 C.ar    1  UNL1        0.0039
     19 C         140.6722  146.0177  156.8344 C.3     1  UNL1        0.1517
     20 N         139.9881  147.2846  156.4135 N.3     1  UNL1       -0.3135
     21 H         139.4564  147.1163  155.5595 H       1  UNL1        0.1193
     22 H         140.6869  148.0075  156.2420 H       1  UNL1        0.1193
     23 N         141.3848  142.4830  163.8133 N.pl3   1  UNL1       -0.2980
     24 H         141.5387  143.4001  164.1365 H       1  UNL1        0.1536
     25 C         143.9511  137.8429  166.6211 C.3     1  UNL1        0.0310
     26 C         143.3095  139.0029  165.9192 C.ar    1  UNL1       -0.0218
     27 C         142.4480  139.9610  166.6872 C.ar    1  UNL1       -0.0030
     28 C         141.8064  141.1210  165.9853 C.ar    1  UNL1        0.0143
     29 C         142.0264  141.3230  164.5153 C.ar    1  UNL1        0.0493
     30 C         142.8880  140.3649  163.7473 C.ar    1  UNL1        0.0143
     31 C         143.5296  139.2049  164.4492 C.ar    1  UNL1       -0.0030
@<TRIPOS>BOND
     1    25    26    1
     2    26    27   ar
     3    27    28   ar
     4    28    29   ar
     5    29    23    1
     6    23     1    1
     7     1     2   ar
     8     2    12    1
     9    12    13   ar
    10    13    14   ar
    11    14    15   ar
    12    15    16    1
    13    15    17   ar
    14    17    18   ar
    15     2     3   ar
    16     3     4   ar
    17     4     5   ar
    18     5     6    1
    19     6     7    1
    20     7     8    1
    21     8     9   am
    22     9    10    2
    23     9    19    1
    24    19    20    1
    25     8    11    1
    26    29    30   ar
    27    30    31   ar
    28    31    26   ar
    29     5     1   ar
    30    18    12   ar
    31    11     4    1
    32    23    24    1
    33    20    21    1
    34    20    22    1
@<TRIPOS>MOLECULE
*****
 31 34 0 0 0
SMALL
GASTEIGER

@<TRIPOS>ATOM
      1 C         141.9820  141.9105  162.2243 C.ar    1  UNL1        0.1318
      2 C         141.2718  140.5945  162.3405 C.ar    1  UNL1        0.1125
      3 N         141.6770  139.7444  161.1729 N.ar    1  UNL1       -0.2279
      4 C         142.6376  140.5352  160.3351 C.ar    1  UNL1        0.1416
      5 N         142.8261  141.8739  160.9849 N.ar    1  UNL1       -0.3005
      6 C         143.7420  142.8866  160.3640 C.3     1  UNL1        0.1299
      7 C         144.4695  142.5606  159.0934 C.3     1  UNL1        0.1184
      8 N         144.2810  141.2218  158.4436 N.am    1  UNL1       -0.2694
      9 C         145.0084  140.8958  157.1730 C.2     1  UNL1        0.2419
     10 O         144.8199  139.5570  156.5232 O.2     1  UNL1       -0.2734
     11 C         143.3650  140.2091  159.0645 C.3     1  UNL1        0.1578
     12 C         140.3230  140.1980  163.4326 C.ar    1  UNL1        0.0205
     13 C         140.7990  139.3343  164.5627 C.ar    1  UNL1        0.0039
     14 C         139.8502  138.9378  165.6548 C.ar    1  UNL1        0.0297
     15 C         138.4253  139.4051  165.6167 C.ar    1  UNL1        0.1401
     16 F         137.4765  139.0087  166.7087 F       1  UNL1       -0.2042
     17 C         137.9493  140.2688  164.4865 C.ar    1  UNL1        0.0297
     18 C         138.8981  140.6653  163.3944 C.ar    1  UNL1        0.0039
     19 C         145.9244  141.9085  156.5521 C.3     1  UNL1        0.1517
     20 N         147.2201  141.4701  155.9365 N.3     1  UNL1       -0.3135
     21 H         147.8360  141.1060  156.6636 H       1  UNL1        0.1193
     22 H         147.6662  142.2658  155.4802 H       1  UNL1        0.1193
     23 N         141.8681  143.0613  163.1797 N.pl3   1  UNL1       -0.2980
     24 H         141.8333  143.9837  162.8374 H       1  UNL1        0.1536
     25 C         141.6242  142.0429  169.0876 C.3     1  UNL1        0.0310
     26 C         141.6852  142.2975  167.6106 C.ar    1  UNL1       -0.0218
     27 C         142.9384  141.9870  166.8471 C.ar    1  UNL1       -0.0030
     28 C         142.9994  142.2415  165.3702 C.ar    1  UNL1        0.0143
     29 C         141.8071  142.8067  164.6566 C.ar    1  UNL1        0.0493
     30 C         140.5539  143.1172  165.4202 C.ar    1  UNL1        0.0143
     31 C         140.4929  142.8627  166.8971 C.ar    1  UNL1       -0.0030
@<TRIPOS>BOND
     1    25    26    1
     2    26    27   ar
     3    27    28   ar
     4    28    29   ar
     5    29    23    1
     6    23     1    1
     7     1     2   ar
     8     2    12    1
     9    12    13   ar
    10    13    14   ar
    11    14    15   ar
    12    15    16    1
    13    15    17   ar
    14    17    18   ar
    15     2     3   ar
    16     3     4   ar
    17     4     5   ar
    18     5     6    1
    19     6     7    1
    20     7     8    1
    21     8     9   am
    22     9    10    2
    23     9    19    1
    24    19    20    1
    25     8    11    1
    26    29    30   ar
    27    30    31   ar
    28    31    26   ar
    29     5     1   ar
    30    18    12   ar
    31    11     4    1
    32    23    24    1
    33    20    21    1
    34    20    22    1
@<TRIPOS>MOLECULE
*****
 31 34 0 0 0
SMALL
GASTEIGER

@<TRIPOS>ATOM
      1 C         141.5532  141.8591  163.5910 C.ar    1  UNL1        0.1318
      2 C         142.7812  141.5586  164.3983 C.ar    1  UNL1        0.1125
      3 N         143.9682  141.6426  163.4851 N.ar    1  UNL1       -0.2279
      4 C         143.4738  141.9950  162.1134 C.ar    1  UNL1        0.1416
      5 N         141.9812  142.1288  162.1789 N.ar    1  UNL1       -0.3005
      6 C         141.2047  142.4789  160.9443 C.3     1  UNL1        0.1299
      7 C         141.9208  142.6953  159.6442 C.3     1  UNL1        0.1184
      8 N         143.4134  142.5615  159.5787 N.am    1  UNL1       -0.2694
      9 C         144.1295  142.7779  158.2784 C.2     1  UNL1        0.2419
     10 O         145.6220  142.6442  158.2130 O.2     1  UNL1       -0.2734
     11 C         144.1899  142.2114  160.8133 C.3     1  UNL1        0.1578
     12 C         142.8161  141.2315  165.8618 C.ar    1  UNL1        0.0205
     13 C         142.7070  139.8057  166.3144 C.ar    1  UNL1        0.0039
     14 C         142.7419  139.4786  167.7779 C.ar    1  UNL1        0.0297
     15 C         142.8859  140.5774  168.7888 C.ar    1  UNL1        0.1401
     16 F         142.9208  140.2503  170.2523 F       1  UNL1       -0.2042
     17 C         142.9951  142.0032  168.3361 C.ar    1  UNL1        0.0297
     18 C         142.9602  142.3303  166.8726 C.ar    1  UNL1        0.0039
     19 C         143.3529  143.1280  157.0438 C.3     1  UNL1        0.1517
     20 N         143.0209  144.5606  156.7477 N.3     1  UNL1       -0.3135
     21 H         142.3807  144.9151  157.4582 H       1  UNL1        0.1193
     22 H         142.5798  144.6247  155.8302 H       1  UNL1        0.1193
     23 N         140.1445  141.8852  164.1055 N.pl3   1  UNL1       -0.2980
     24 H         139.6129  142.7115  164.0430 H       1  UNL1        0.1536
     25 C         137.7491  136.9544  166.5446 C.3     1  UNL1        0.0310
     26 C         138.3479  138.1871  165.9348 C.ar    1  UNL1       -0.0218
     27 C         138.7938  138.1747  164.5027 C.ar    1  UNL1       -0.0030
     28 C         139.3927  139.4074  163.8929 C.ar    1  UNL1        0.0143
     29 C         139.5456  140.6525  164.7152 C.ar    1  UNL1        0.0493
     30 C         139.0997  140.6649  166.1474 C.ar    1  UNL1        0.0143
     31 C         138.5009  139.4322  166.7572 C.ar    1  UNL1       -0.0030
@<TRIPOS>BOND
     1    25    26    1
     2    26    27   ar
     3    27    28   ar
     4    28    29   ar
     5    29    23    1
     6    23     1    1
     7     1     2   ar
     8     2    12    1
     9    12    13   ar
    10    13    14   ar
    11    14    15   ar
    12    15    16    1
    13    15    17   ar
    14    17    18   ar
    15     2     3   ar
    16     3     4   ar
    17     4     5   ar
    18     5     6    1
    19     6     7    1
    20     7     8    1
    21     8     9   am
    22     9    10    2
    23     9    19    1
    24    19    20    1
    25     8    11    1
    26    29    30   ar
    27    30    31   ar
    28    31    26   ar
    29     5     1   ar
    30    18    12   ar
    31    11     4    1
    32    23    24    1
    33    20    21    1
    34    20    22    1
@<TRIPOS>MOLECULE
*****
 31 34 0 0 0
SMALL
GASTEIGER

@<TRIPOS>ATOM
      1 C         140.7512  140.0018  164.5876 C.ar    1  UNL1        0.1318
      2 C         141.9010  139.1923  164.0655 C.ar    1  UNL1        0.1125
      3 N         142.8061  138.8752  165.2189 N.ar    1  UNL1       -0.2279
      4 C         142.2157  139.4887  166.4538 C.ar    1  UNL1        0.1416
      5 N         140.9456  140.1850  166.0636 N.ar    1  UNL1       -0.3005
      6 C         140.1303  140.8959  167.1028 C.3     1  UNL1        0.1299
      7 C         140.5851  140.9105  168.5321 C.3     1  UNL1        0.1184
      8 N         141.8551  140.2143  168.9223 N.am    1  UNL1       -0.2694
      9 C         142.3098  140.2289  170.3517 C.2     1  UNL1        0.2419
     10 O         143.5798  139.5326  170.7418 O.2     1  UNL1       -0.2734
     11 C         142.6704  139.5033  167.8831 C.3     1  UNL1        0.1578
     12 C         142.1092  138.7734  162.6403 C.ar    1  UNL1        0.0205
     13 C         143.4497  138.2687  162.1951 C.ar    1  UNL1        0.0039
     14 C         143.6579  137.8498  160.7699 C.ar    1  UNL1        0.0297
     15 C         142.5256  137.9356  159.7900 C.ar    1  UNL1        0.1401
     16 F         142.7338  137.5167  158.3648 F       1  UNL1       -0.2042
     17 C         141.1851  138.4403  160.2352 C.ar    1  UNL1        0.0297
     18 C         140.9769  138.8592  161.6604 C.ar    1  UNL1        0.0039
     19 C         141.4945  140.9398  171.3908 C.3     1  UNL1        0.1517
     20 N         141.9876  142.2288  171.9785 N.3     1  UNL1       -0.3135
     21 H         142.8360  142.0544  172.5171 H       1  UNL1        0.1193
     22 H         141.2710  142.6198  172.5900 H       1  UNL1        0.1193
     23 N         139.6077  140.5346  163.7762 N.pl3   1  UNL1       -0.2980
     24 H         138.8412  139.9538  163.5651 H       1  UNL1        0.1536
     25 C         139.7046  146.2047  161.8166 C.3     1  UNL1        0.0310
     26 C         139.6803  144.7872  162.3065 C.ar    1  UNL1       -0.0218
     27 C         138.4067  144.1986  162.8370 C.ar    1  UNL1       -0.0030
     28 C         138.3824  142.7811  163.3269 C.ar    1  UNL1        0.0143
     29 C         139.6319  141.9520  163.2863 C.ar    1  UNL1        0.0493
     30 C         140.9055  142.5406  162.7557 C.ar    1  UNL1        0.0143
     31 C         140.9298  143.9582  162.2658 C.ar    1  UNL1       -0.0030
@<TRIPOS>BOND
     1    25    26    1
     2    26    27   ar
     3    27    28   ar
     4    28    29   ar
     5    29    23    1
     6    23     1    1
     7     1     2   ar
     8     2    12    1
     9    12    13   ar
    10    13    14   ar
    11    14    15   ar
    12    15    16    1
    13    15    17   ar
    14    17    18   ar
    15     2     3   ar
    16     3     4   ar
    17     4     5   ar
    18     5     6    1
    19     6     7    1
    20     7     8    1
    21     8     9   am
    22     9    10    2
    23     9    19    1
    24    19    20    1
    25     8    11    1
    26    29    30   ar
    27    30    31   ar
    28    31    26   ar
    29     5     1   ar
    30    18    12   ar
    31    11     4    1
    32    23    24    1
    33    20    21    1
    34    20    22    1
@<TRIPOS>MOLECULE
*****
 31 34 0 0 0
SMALL
GASTEIGER

@<TRIPOS>ATOM
      1 C         142.6284  140.9502  164.7104 C.ar    1  UNL1        0.1318
      2 C         142.1241  139.6171  164.2429 C.ar    1  UNL1        0.1125
      3 N         141.3873  138.9753  165.3809 N.ar    1  UNL1       -0.2279
      4 C         141.4361  139.9117  166.5517 C.ar    1  UNL1        0.1416
      5 N         142.2032  141.1323  166.1373 N.ar    1  UNL1       -0.3005
      6 C         142.4154  142.2518  167.1128 C.3     1  UNL1        0.1299
      7 C         141.8605  142.1507  168.5027 C.3     1  UNL1        0.1184
      8 N         141.0934  140.9302  168.9171 N.am    1  UNL1       -0.2694
      9 C         140.5385  140.8291  170.3070 C.2     1  UNL1        0.2419
     10 O         139.7714  139.6085  170.7215 O.2     1  UNL1       -0.2734
     11 C         140.8812  139.8106  167.9416 C.3     1  UNL1        0.1578
     12 C         142.3220  139.0291  162.8772 C.ar    1  UNL1        0.0205
     13 C         141.1945  139.0339  161.8880 C.ar    1  UNL1        0.0039
     14 C         141.3923  138.4459  160.5224 C.ar    1  UNL1        0.0297
     15 C         142.7177  137.8530  160.1459 C.ar    1  UNL1        0.1401
     16 F         142.9156  137.2650  158.7802 F       1  UNL1       -0.2042
     17 C         143.8453  137.8482  161.1351 C.ar    1  UNL1        0.0297
     18 C         143.6474  138.4363  162.5008 C.ar    1  UNL1        0.0039
     19 C         140.7507  141.9486  171.2825 C.3     1  UNL1        0.1517
     20 N         142.0819  142.1171  171.9530 N.3     1  UNL1       -0.3135
     21 H         142.2570  141.3210  172.5661 H       1  UNL1        0.1193
     22 H         142.0793  142.9759  172.5032 H       1  UNL1        0.1193
     23 N         143.4191  141.9294  163.8943 N.pl3   1  UNL1       -0.2980
     24 H         144.3944  141.9939  164.0119 H       1  UNL1        0.1536
     25 C         140.6382  145.4527  159.9128 C.3     1  UNL1        0.0310
     26 C         141.3334  144.5719  160.9082 C.ar    1  UNL1       -0.0218
     27 C         141.3539  144.9507  162.3594 C.ar    1  UNL1       -0.0030
     28 C         142.0491  144.0699  163.3548 C.ar    1  UNL1        0.0143
     29 C         142.7239  142.8102  162.8990 C.ar    1  UNL1        0.0493
     30 C         142.7034  142.4313  161.4477 C.ar    1  UNL1        0.0143
     31 C         142.0081  143.3122  160.4523 C.ar    1  UNL1       -0.0030
@<TRIPOS>BOND
     1    25    26    1
     2    26    27   ar
     3    27    28   ar
     4    28    29   ar
     5    29    23    1
     6    23     1    1
     7     1     2   ar
     8     2    12    1
     9    12    13   ar
    10    13    14   ar
    11    14    15   ar
    12    15    16    1
    13    15    17   ar
    14    17    18   ar
    15     2     3   ar
    16     3     4   ar
    17     4     5   ar
    18     5     6    1
    19     6     7    1
    20     7     8    1
    21     8     9   am
    22     9    10    2
    23     9    19    1
    24    19    20    1
    25     8    11    1
    26    29    30   ar
    27    30    31   ar
    28    31    26   ar
    29     5     1   ar
    30    18    12   ar
    31    11     4    1
    32    23    24    1
    33    20    21    1
    34    20    22    1
