@<TRIPOS>MOLECULE
*****
 45 50 0 0 0
SMALL
GASTEIGER

@<TRIPOS>ATOM
      1 C         143.1109  139.5512  160.8270 C.ar    1  UNL1        0.1200
      2 N         142.7763  138.4278  159.8910 N.ar    1  UNL1       -0.2309
      3 C         143.1798  138.8419  158.5069 C.ar    1  UNL1        0.0997
      4 C         143.7637  140.2212  158.5875 C.ar    1  UNL1        0.0961
      5 N         143.7211  140.6596  160.0214 N.ar    1  UNL1       -0.3123
      6 C         143.0263  138.0208  157.2610 C.ar    1  UNL1        0.0193
      7 C         143.0289  138.6884  155.9178 C.ar    1  UNL1        0.0038
      8 C         142.8754  137.8674  154.6719 C.ar    1  UNL1        0.0296
      9 C         142.7193  136.3787  154.7692 C.ar    1  UNL1        0.1440
     10 F         142.5658  135.5577  153.5233 F       1  UNL1       -0.2042
     11 C         142.7167  135.7111  156.1125 C.ar    1  UNL1        0.0988
     12 C         142.8702  136.5321  157.3584 C.ar    1  UNL1        0.0077
     13 C         142.5606  134.2225  156.2097 C.3     1  UNL1        0.4207
     14 F         142.4046  132.7337  156.3070 F       1  UNL1       -0.1658
     15 F         143.9767  134.1053  156.6904 F       1  UNL1       -0.1658
     16 F         141.1446  134.3395  155.7291 F       1  UNL1       -0.1658
     17 N         142.4074  139.5894  165.2715 N.pl3   1  UNL1       -0.2931
     18 C         143.2469  140.6576  164.6359 C.3     1  UNL1        0.0926
     19 C         143.4814  140.6449  163.1543 C.3     1  UNL1        0.0290
     20 C         142.8764  139.5639  162.3085 C.3     1  UNL1        0.0603
     21 C         142.0369  138.4957  162.9442 C.3     1  UNL1        0.0290
     22 C         141.8024  138.5084  164.4257 C.3     1  UNL1        0.0926
     23 N         139.6422  141.1719  169.3763 N.pl3   1  UNL1       -0.3425
     24 C         140.7902  140.3934  168.8054 C.ar    1  UNL1        0.1298
     25 N         141.7037  139.6276  169.7160 N.ar    1  UNL1       -0.2094
     26 C         142.8517  138.8491  169.1450 C.ar    1  UNL1        0.2012
     27 N         143.0863  138.8364  167.6636 N.ar    1  UNL1       -0.2089
     28 C         142.1728  139.6021  166.7530 C.ar    1  UNL1        0.1361
     29 C         141.0248  140.3806  167.3240 C.ar    1  UNL1        0.0628
     30 H         139.4883  141.1802  170.3487 H       1  UNL1        0.1437
     31 H         139.0427  141.6745  168.7787 H       1  UNL1        0.1437
     32 C         140.1113  141.1464  166.4133 C.ar    1  UNL1        0.0055
     33 C         140.3267  142.6150  166.1968 C.ar    1  UNL1        0.0025
     34 C         139.4133  143.3808  165.2862 C.ar    1  UNL1        0.0296
     35 C         138.2844  142.6780  164.5921 C.ar    1  UNL1        0.1401
     36 F         137.3710  143.4438  163.6815 F       1  UNL1       -0.2042
     37 C         138.0690  141.2094  164.8087 C.ar    1  UNL1        0.0296
     38 C         138.9824  140.4436  165.7193 C.ar    1  UNL1        0.0025
     39 C         144.2040  141.9753  160.5558 C.3     1  UNL1        0.1245
     40 C         143.2999  143.1720  160.5318 C.3     1  UNL1        0.0969
     41 N         143.0983  143.9848  161.7762 N.3     1  UNL1       -0.2711
     42 C         144.1541  144.3307  162.7840 C.3     1  UNL1        0.0722
     43 C         143.5139  145.1540  163.8621 C.3     1  UNL1        0.0188
     44 C         142.0624  145.3169  163.5205 C.3     1  UNL1        0.0188
     45 C         141.8055  144.5943  162.2314 C.3     1  UNL1        0.0722
@<TRIPOS>BOND
     1    23    24    1
     2    24    25   ar
     3    25    26   ar
     4    26    27   ar
     5    27    28   ar
     6    28    17    1
     7    17    18    1
     8    18    19    1
     9    19    20    1
    10    20     1    1
    11     1     2   ar
    12     2     3   ar
    13     3     6    1
    14     6     7   ar
    15     7     8   ar
    16     8     9   ar
    17     9    10    1
    18     9    11   ar
    19    11    13    1
    20    13    14    1
    21    13    15    1
    22    13    16    1
    23    11    12   ar
    24     3     4   ar
    25     4     5   ar
    26     5    39    1
    27    39    40    1
    28    40    41    1
    29    41    42    1
    30    42    43    1
    31    43    44    1
    32    44    45    1
    33    20    21    1
    34    21    22    1
    35    28    29   ar
    36    29    32    1
    37    32    33   ar
    38    33    34   ar
    39    34    35   ar
    40    35    36    1
    41    35    37   ar
    42    37    38   ar
    43    29    24   ar
    44    38    32   ar
    45    22    17    1
    46     5     1   ar
    47    45    41    1
    48    12     6   ar
    49    23    30    1
    50    23    31    1
@<TRIPOS>MOLECULE
*****
 45 50 0 0 0
SMALL
GASTEIGER

@<TRIPOS>ATOM
      1 C         139.5445  141.5627  160.1982 C.ar    1  UNL1        0.1200
      2 N         138.2625  141.4662  159.4255 N.ar    1  UNL1       -0.2309
      3 C         138.5518  141.8326  158.0000 C.ar    1  UNL1        0.0997
      4 C         140.0127  142.1556  157.8918 C.ar    1  UNL1        0.0961
      5 N         140.6262  141.9888  159.2504 N.ar    1  UNL1       -0.3123
      6 C         137.5553  141.8696  156.8795 C.ar    1  UNL1        0.0193
      7 C         137.7048  142.8743  155.7757 C.ar    1  UNL1        0.0038
      8 C         136.7083  142.9113  154.6552 C.ar    1  UNL1        0.0296
      9 C         135.5623  141.9436  154.6384 C.ar    1  UNL1        0.1440
     10 F         134.5658  141.9805  153.5179 F       1  UNL1       -0.2042
     11 C         135.4129  140.9389  155.7422 C.ar    1  UNL1        0.0988
     12 C         136.4094  140.9019  156.8627 C.ar    1  UNL1        0.0077
     13 C         134.2669  139.9712  155.7254 C.3     1  UNL1        0.4207
     14 F         133.1209  139.0035  155.7086 F       1  UNL1       -0.1658
     15 F         133.3938  140.9936  156.3905 F       1  UNL1       -0.1658
     16 F         135.1400  138.9488  155.0603 F       1  UNL1       -0.1658
     17 N         140.0559  140.7217  164.5893 N.pl3   1  UNL1       -0.2931
     18 C         140.3463  139.6494  163.5815 C.3     1  UNL1        0.0926
     19 C         140.1759  139.9297  162.1178 C.3     1  UNL1        0.0290
     20 C         139.7150  141.2824  161.6619 C.3     1  UNL1        0.0603
     21 C         139.4245  142.3547  162.6698 C.3     1  UNL1        0.0290
     22 C         139.5950  142.0744  164.1334 C.3     1  UNL1        0.0926
     23 N         143.1281  140.2558  168.7539 N.pl3   1  UNL1       -0.3425
     24 C         141.7624  140.2085  168.1353 C.ar    1  UNL1        0.1298
     25 N         140.5672  139.8808  168.9803 N.ar    1  UNL1       -0.2094
     26 C         139.2016  139.8335  168.3617 C.ar    1  UNL1        0.2012
     27 N         139.0311  140.1138  166.8980 N.ar    1  UNL1       -0.2089
     28 C         140.2263  140.4414  166.0530 C.ar    1  UNL1        0.1361
     29 C         141.5920  140.4888  166.6717 C.ar    1  UNL1        0.0628
     30 H         143.2400  140.0719  169.7146 H       1  UNL1        0.1437
     31 H         143.9126  140.4709  168.1993 H       1  UNL1        0.1437
     32 C         142.7872  140.8164  165.8265 C.ar    1  UNL1        0.0055
     33 C         143.1972  142.2458  165.6295 C.ar    1  UNL1        0.0025
     34 C         144.3924  142.5735  164.7844 C.ar    1  UNL1        0.0296
     35 C         145.1776  141.4718  164.1364 C.ar    1  UNL1        0.1401
     36 F         146.3727  141.7995  163.2913 F       1  UNL1       -0.2042
     37 C         144.7675  140.0425  164.3335 C.ar    1  UNL1        0.0296
     38 C         143.5723  139.7148  165.1786 C.ar    1  UNL1        0.0025
     39 C         142.0682  142.2093  159.5997 C.3     1  UNL1        0.1245
     40 C         142.5660  143.5939  159.8917 C.3     1  UNL1        0.0969
     41 N         141.9412  144.3989  160.9924 N.3     1  UNL1       -0.2711
     42 C         142.4318  144.4879  162.4071 C.3     1  UNL1        0.0722
     43 C         141.5100  145.4003  163.1608 C.3     1  UNL1        0.0188
     44 C         140.4498  145.8750  162.2118 C.3     1  UNL1        0.0188
     45 C         140.7163  145.2562  160.8717 C.3     1  UNL1        0.0722
@<TRIPOS>BOND
     1    23    24    1
     2    24    25   ar
     3    25    26   ar
     4    26    27   ar
     5    27    28   ar
     6    28    17    1
     7    17    18    1
     8    18    19    1
     9    19    20    1
    10    20     1    1
    11     1     2   ar
    12     2     3   ar
    13     3     6    1
    14     6     7   ar
    15     7     8   ar
    16     8     9   ar
    17     9    10    1
    18     9    11   ar
    19    11    13    1
    20    13    14    1
    21    13    15    1
    22    13    16    1
    23    11    12   ar
    24     3     4   ar
    25     4     5   ar
    26     5    39    1
    27    39    40    1
    28    40    41    1
    29    41    42    1
    30    42    43    1
    31    43    44    1
    32    44    45    1
    33    20    21    1
    34    21    22    1
    35    28    29   ar
    36    29    32    1
    37    32    33   ar
    38    33    34   ar
    39    34    35   ar
    40    35    36    1
    41    35    37   ar
    42    37    38   ar
    43    29    24   ar
    44    38    32   ar
    45    22    17    1
    46     5     1   ar
    47    45    41    1
    48    12     6   ar
    49    23    30    1
    50    23    31    1
@<TRIPOS>MOLECULE
*****
 45 50 0 0 0
SMALL
GASTEIGER

@<TRIPOS>ATOM
      1 C         143.4139  142.7476  161.2124 C.ar    1  UNL1        0.1200
      2 N         144.4962  142.1491  160.3635 N.ar    1  UNL1       -0.2309
      3 C         144.3050  142.6356  158.9576 C.ar    1  UNL1        0.0997
      4 C         143.1045  143.5348  158.9375 C.ar    1  UNL1        0.0961
      5 N         142.5538  143.6040  160.3310 N.ar    1  UNL1       -0.3123
      6 C         145.1636  142.2846  157.7787 C.ar    1  UNL1        0.0193
      7 C         146.5392  142.8690  157.6523 C.ar    1  UNL1        0.0038
      8 C         147.3978  142.5180  156.4734 C.ar    1  UNL1        0.0296
      9 C         146.8806  141.5826  155.4210 C.ar    1  UNL1        0.1440
     10 F         147.7391  141.2316  154.2421 F       1  UNL1       -0.2042
     11 C         145.5049  140.9982  155.5475 C.ar    1  UNL1        0.0988
     12 C         144.6464  141.3492  156.7263 C.ar    1  UNL1        0.0077
     13 C         144.9878  140.0629  154.4951 C.3     1  UNL1        0.4207
     14 F         144.4706  139.1275  153.4426 F       1  UNL1       -0.1658
     15 F         144.5031  141.2338  153.6925 F       1  UNL1       -0.1658
     16 F         145.4725  138.8919  155.2975 F       1  UNL1       -0.1658
     17 N         142.8469  142.0893  165.6277 N.pl3   1  UNL1       -0.2931
     18 C         142.0135  143.1080  164.9082 C.3     1  UNL1        0.0926
     19 C         142.2025  143.3275  163.4364 C.3     1  UNL1        0.0290
     20 C         143.2249  142.5281  162.6841 C.3     1  UNL1        0.0603
     21 C         144.0582  141.5094  163.4037 C.3     1  UNL1        0.0290
     22 C         143.8692  141.2900  164.8754 C.3     1  UNL1        0.0926
     23 N         140.4261  139.6803  169.5439 N.pl3   1  UNL1       -0.3425
     24 C         141.4475  140.6653  169.0576 C.ar    1  UNL1        0.1298
     25 N         142.2798  141.4309  170.0430 N.ar    1  UNL1       -0.2094
     26 C         143.3012  142.4159  169.5567 C.ar    1  UNL1        0.2012
     27 N         143.4902  142.6354  168.0849 N.ar    1  UNL1       -0.2089
     28 C         142.6579  141.8698  167.0995 C.ar    1  UNL1        0.1361
     29 C         141.6365  140.8848  167.5858 C.ar    1  UNL1        0.0628
     30 H         140.3021  139.5362  170.5099 H       1  UNL1        0.1437
     31 H         139.8798  139.1778  168.8971 H       1  UNL1        0.1437
     32 C         140.8041  140.1192  166.6003 C.ar    1  UNL1        0.0055
     33 C         141.3706  138.9074  165.9217 C.ar    1  UNL1        0.0025
     34 C         140.5384  138.1418  164.9363 C.ar    1  UNL1        0.0296
     35 C         139.1395  138.5881  164.6294 C.ar    1  UNL1        0.1401
     36 F         138.3072  137.8225  163.6439 F       1  UNL1       -0.2042
     37 C         138.5730  139.7999  165.3080 C.ar    1  UNL1        0.0296
     38 C         139.4053  140.5655  166.2935 C.ar    1  UNL1        0.0025
     39 C         141.3537  144.3913  160.7667 C.3     1  UNL1        0.1245
     40 C         139.9748  143.8531  160.5236 C.3     1  UNL1        0.0969
     41 N         139.0341  143.6532  161.6746 N.3     1  UNL1       -0.2711
     42 C         138.2455  142.4102  161.9631 C.3     1  UNL1        0.0722
     43 C         137.4407  142.6498  163.2060 C.3     1  UNL1        0.0188
     44 C         137.7319  144.0410  163.6856 C.3     1  UNL1        0.0188
     45 C         138.7166  144.6611  162.7392 C.3     1  UNL1        0.0722
@<TRIPOS>BOND
     1    23    24    1
     2    24    25   ar
     3    25    26   ar
     4    26    27   ar
     5    27    28   ar
     6    28    17    1
     7    17    18    1
     8    18    19    1
     9    19    20    1
    10    20     1    1
    11     1     2   ar
    12     2     3   ar
    13     3     6    1
    14     6     7   ar
    15     7     8   ar
    16     8     9   ar
    17     9    10    1
    18     9    11   ar
    19    11    13    1
    20    13    14    1
    21    13    15    1
    22    13    16    1
    23    11    12   ar
    24     3     4   ar
    25     4     5   ar
    26     5    39    1
    27    39    40    1
    28    40    41    1
    29    41    42    1
    30    42    43    1
    31    43    44    1
    32    44    45    1
    33    20    21    1
    34    21    22    1
    35    28    29   ar
    36    29    32    1
    37    32    33   ar
    38    33    34   ar
    39    34    35   ar
    40    35    36    1
    41    35    37   ar
    42    37    38   ar
    43    29    24   ar
    44    38    32   ar
    45    22    17    1
    46     5     1   ar
    47    45    41    1
    48    12     6   ar
    49    23    30    1
    50    23    31    1
@<TRIPOS>MOLECULE
*****
 45 50 0 0 0
SMALL
GASTEIGER

@<TRIPOS>ATOM
      1 C         141.2045  143.7204  161.9495 C.ar    1  UNL1        0.1200
      2 N         140.1332  143.9204  160.9188 N.ar    1  UNL1       -0.2309
      3 C         140.8006  144.1610  159.5972 C.ar    1  UNL1        0.0997
      4 C         142.2844  144.1098  159.8112 C.ar    1  UNL1        0.0961
      5 N         142.5340  143.8374  161.2649 N.ar    1  UNL1       -0.3123
      6 C         140.1062  144.4094  158.2910 C.ar    1  UNL1        0.0193
      7 C         139.2849  143.3242  157.6600 C.ar    1  UNL1        0.0038
      8 C         138.5905  143.5726  156.3539 C.ar    1  UNL1        0.0296
      9 C         138.7173  144.9060  155.6787 C.ar    1  UNL1        0.1440
     10 F         138.0229  145.1543  154.3726 F       1  UNL1       -0.2042
     11 C         139.5385  145.9911  156.3097 C.ar    1  UNL1        0.0988
     12 C         140.2330  145.7428  157.6159 C.ar    1  UNL1        0.0077
     13 C         139.6653  147.3245  155.6345 C.3     1  UNL1        0.4207
     14 F         139.7920  148.6580  154.9593 F       1  UNL1       -0.1658
     15 F         138.6683  147.9048  156.5933 F       1  UNL1       -0.1658
     16 F         140.6622  146.7442  154.6757 F       1  UNL1       -0.1658
     17 N         140.5456  142.9113  166.3269 N.pl3   1  UNL1       -0.2931
     18 C         139.3888  143.2955  165.4528 C.3     1  UNL1        0.0926
     19 C         139.6084  143.5652  163.9936 C.3     1  UNL1        0.0290
     20 C         140.9848  143.4507  163.4086 C.3     1  UNL1        0.0603
     21 C         142.1417  143.0664  164.2828 C.3     1  UNL1        0.0290
     22 C         141.9220  142.7967  165.7419 C.3     1  UNL1        0.0926
     23 N         139.3888  139.6091  170.1684 N.pl3   1  UNL1       -0.3425
     24 C         139.7476  140.9905  169.7068 C.ar    1  UNL1        0.1298
     25 N         139.8868  142.1021  170.7042 N.ar    1  UNL1       -0.2094
     26 C         140.2456  143.4834  170.2425 C.ar    1  UNL1        0.2012
     27 N         140.4652  143.7532  168.7835 N.ar    1  UNL1       -0.2089
     28 C         140.3260  142.6416  167.7860 C.ar    1  UNL1        0.1361
     29 C         139.9672  141.2602  168.2477 C.ar    1  UNL1        0.0628
     30 H         139.2446  139.4321  171.1261 H       1  UNL1        0.1437
     31 H         139.2974  138.8795  169.5138 H       1  UNL1        0.1437
     32 C         139.8280  140.1486  167.2502 C.ar    1  UNL1        0.0055
     33 C         141.0401  139.6207  166.5415 C.ar    1  UNL1        0.0025
     34 C         140.9009  138.5092  165.5440 C.ar    1  UNL1        0.0296
     35 C         139.5496  137.9254  165.2552 C.ar    1  UNL1        0.1401
     36 F         139.4105  136.8138  164.2577 F       1  UNL1       -0.2042
     37 C         138.3376  138.4532  165.9639 C.ar    1  UNL1        0.0296
     38 C         138.4768  139.5649  166.9614 C.ar    1  UNL1        0.0025
     39 C         143.8773  143.7053  161.9192 C.3     1  UNL1        0.1245
     40 C         144.7470  142.5218  161.6143 C.3     1  UNL1        0.0969
     41 N         144.6795  141.2986  162.4799 N.3     1  UNL1       -0.2711
     42 C         143.8529  140.0754  162.2146 C.3     1  UNL1        0.0722
     43 C         144.0892  139.1046  163.3334 C.3     1  UNL1        0.0188
     44 C         145.0618  139.7280  164.2902 C.3     1  UNL1        0.0188
     45 C         145.4266  141.0839  163.7627 C.3     1  UNL1        0.0722
@<TRIPOS>BOND
     1    23    24    1
     2    24    25   ar
     3    25    26   ar
     4    26    27   ar
     5    27    28   ar
     6    28    17    1
     7    17    18    1
     8    18    19    1
     9    19    20    1
    10    20     1    1
    11     1     2   ar
    12     2     3   ar
    13     3     6    1
    14     6     7   ar
    15     7     8   ar
    16     8     9   ar
    17     9    10    1
    18     9    11   ar
    19    11    13    1
    20    13    14    1
    21    13    15    1
    22    13    16    1
    23    11    12   ar
    24     3     4   ar
    25     4     5   ar
    26     5    39    1
    27    39    40    1
    28    40    41    1
    29    41    42    1
    30    42    43    1
    31    43    44    1
    32    44    45    1
    33    20    21    1
    34    21    22    1
    35    28    29   ar
    36    29    32    1
    37    32    33   ar
    38    33    34   ar
    39    34    35   ar
    40    35    36    1
    41    35    37   ar
    42    37    38   ar
    43    29    24   ar
    44    38    32   ar
    45    22    17    1
    46     5     1   ar
    47    45    41    1
    48    12     6   ar
    49    23    30    1
    50    23    31    1
@<TRIPOS>MOLECULE
*****
 45 50 0 0 0
SMALL
GASTEIGER

@<TRIPOS>ATOM
      1 C         142.5061  143.4550  161.6242 C.ar    1  UNL1        0.1200
      2 N         143.2091  142.7880  160.4792 N.ar    1  UNL1       -0.2309
      3 C         142.8082  143.4910  159.2163 C.ar    1  UNL1        0.0997
      4 C         141.8575  144.5926  159.5807 C.ar    1  UNL1        0.0961
      5 N         141.6708  144.5703  161.0689 N.ar    1  UNL1       -0.3123
      6 C         143.2760  143.1520  157.8320 C.ar    1  UNL1        0.0193
      7 C         142.3519  143.3291  156.6637 C.ar    1  UNL1        0.0038
      8 C         142.8196  142.9901  155.2794 C.ar    1  UNL1        0.0296
      9 C         144.2114  142.4740  155.0634 C.ar    1  UNL1        0.1440
     10 F         144.6791  142.1350  153.6791 F       1  UNL1       -0.2042
     11 C         145.1354  142.2969  156.2317 C.ar    1  UNL1        0.0988
     12 C         144.6677  142.6359  157.6160 C.ar    1  UNL1        0.0077
     13 C         146.5271  141.7809  156.0156 C.3     1  UNL1        0.4207
     14 F         147.9189  141.2648  155.7994 F       1  UNL1       -0.1658
     15 F         147.0698  143.1670  156.2002 F       1  UNL1       -0.1658
     16 F         145.9845  140.3947  155.8309 F       1  UNL1       -0.1658
     17 N         142.8438  142.3112  165.9633 N.pl3   1  UNL1       -0.2931
     18 C         143.9977  142.0772  165.0340 C.3     1  UNL1        0.0926
     19 C         143.8852  142.4585  163.5876 C.3     1  UNL1        0.0290
     20 C         142.6187  143.0738  163.0705 C.3     1  UNL1        0.0603
     21 C         141.4647  143.3077  163.9999 C.3     1  UNL1        0.0290
     22 C         141.5772  142.9264  165.4462 C.3     1  UNL1        0.0926
     23 N         141.6448  139.1151  169.8809 N.pl3   1  UNL1       -0.3425
     24 C         142.3568  140.3319  169.3685 C.ar    1  UNL1        0.1298
     25 N         143.1812  141.1673  170.3024 N.ar    1  UNL1       -0.2094
     26 C         143.8932  142.3841  169.7899 C.ar    1  UNL1        0.2012
     27 N         143.7807  142.7654  168.3436 N.ar    1  UNL1       -0.2089
     28 C         142.9563  141.9299  167.4097 C.ar    1  UNL1        0.1361
     29 C         142.2443  140.7132  167.9221 C.ar    1  UNL1        0.0628
     30 H         141.7186  138.8649  170.8302 H       1  UNL1        0.1437
     31 H         141.1036  138.5668  169.2679 H       1  UNL1        0.1437
     32 C         141.4198  139.8777  166.9881 C.ar    1  UNL1        0.0055
     33 C         142.0905  138.9226  166.0459 C.ar    1  UNL1        0.0025
     34 C         141.2661  138.0872  165.1119 C.ar    1  UNL1        0.0296
     35 C         139.7708  138.2068  165.1202 C.ar    1  UNL1        0.1401
     36 F         138.9464  137.3714  164.1862 F       1  UNL1       -0.2042
     37 C         139.1001  139.1619  166.0625 C.ar    1  UNL1        0.0296
     38 C         139.9246  139.9974  166.9965 C.ar    1  UNL1        0.0025
     39 C         140.8015  145.5002  161.8624 C.3     1  UNL1        0.1245
     40 C         139.3082  145.3884  161.7751 C.3     1  UNL1        0.0969
     41 N         138.6208  144.1405  162.2443 N.3     1  UNL1       -0.2711
     42 C         137.8925  143.9709  163.5446 C.3     1  UNL1        0.0722
     43 C         137.3625  142.5687  163.5996 C.3     1  UNL1        0.0188
     44 C         137.7633  141.8718  162.3332 C.3     1  UNL1        0.0188
     45 C         138.5409  142.8432  161.4956 C.3     1  UNL1        0.0722
@<TRIPOS>BOND
     1    23    24    1
     2    24    25   ar
     3    25    26   ar
     4    26    27   ar
     5    27    28   ar
     6    28    17    1
     7    17    18    1
     8    18    19    1
     9    19    20    1
    10    20     1    1
    11     1     2   ar
    12     2     3   ar
    13     3     6    1
    14     6     7   ar
    15     7     8   ar
    16     8     9   ar
    17     9    10    1
    18     9    11   ar
    19    11    13    1
    20    13    14    1
    21    13    15    1
    22    13    16    1
    23    11    12   ar
    24     3     4   ar
    25     4     5   ar
    26     5    39    1
    27    39    40    1
    28    40    41    1
    29    41    42    1
    30    42    43    1
    31    43    44    1
    32    44    45    1
    33    20    21    1
    34    21    22    1
    35    28    29   ar
    36    29    32    1
    37    32    33   ar
    38    33    34   ar
    39    34    35   ar
    40    35    36    1
    41    35    37   ar
    42    37    38   ar
    43    29    24   ar
    44    38    32   ar
    45    22    17    1
    46     5     1   ar
    47    45    41    1
    48    12     6   ar
    49    23    30    1
    50    23    31    1
@<TRIPOS>MOLECULE
*****
 45 50 0 0 0
SMALL
GASTEIGER

@<TRIPOS>ATOM
      1 C         140.7701  139.6556  160.1233 C.ar    1  UNL1        0.1200
      2 N         140.7561  138.3318  159.4180 N.ar    1  UNL1       -0.2309
      3 C         140.9220  138.5874  157.9493 C.ar    1  UNL1        0.0997
      4 C         141.0385  140.0691  157.7469 C.ar    1  UNL1        0.0961
      5 N         140.9446  140.7293  159.0905 N.ar    1  UNL1       -0.3123
      6 C         140.9641  137.5444  156.8721 C.ar    1  UNL1        0.0193
      7 C         139.9173  137.5332  155.7977 C.ar    1  UNL1        0.0038
      8 C         139.9594  136.4902  154.7205 C.ar    1  UNL1        0.0296
      9 C         141.0481  135.4584  154.7177 C.ar    1  UNL1        0.1440
     10 F         141.0901  134.4154  153.6405 F       1  UNL1       -0.2042
     11 C         142.0948  135.4696  155.7921 C.ar    1  UNL1        0.0988
     12 C         142.0528  136.5126  156.8693 C.ar    1  UNL1        0.0077
     13 C         143.1835  134.4378  155.7892 C.3     1  UNL1        0.4207
     14 F         144.2722  133.4059  155.7864 F       1  UNL1       -0.1658
     15 F         142.2196  133.4192  156.3217 F       1  UNL1       -0.1658
     16 F         144.1474  135.4562  155.2567 F       1  UNL1       -0.1658
     17 N         140.3603  140.2937  164.5590 N.pl3   1  UNL1       -0.2931
     18 C         139.2183  140.6257  163.6449 C.3     1  UNL1        0.0926
     19 C         139.3549  140.4129  162.1663 C.3     1  UNL1        0.0290
     20 C         140.6335  139.8683  161.6018 C.3     1  UNL1        0.0603
     21 C         141.7755  139.5364  162.5160 C.3     1  UNL1        0.0290
     22 C         141.6389  139.7491  163.9945 C.3     1  UNL1        0.0926
     23 N         141.5264  142.9922  168.8437 N.pl3   1  UNL1       -0.3425
     24 C         140.8068  141.8557  168.1799 C.ar    1  UNL1        0.1298
     25 N         139.9507  140.9319  168.9946 N.ar    1  UNL1       -0.2094
     26 C         139.2312  139.7954  168.3308 C.ar    1  UNL1        0.2012
     27 N         139.3677  139.5827  166.8523 N.ar    1  UNL1       -0.2089
     28 C         140.2238  140.5065  166.0376 C.ar    1  UNL1        0.1361
     29 C         140.9433  141.6429  166.7014 C.ar    1  UNL1        0.0628
     30 H         141.4368  143.1318  169.8141 H       1  UNL1        0.1437
     31 H         142.0882  143.5985  168.3090 H       1  UNL1        0.1437
     32 C         141.7994  142.5667  165.8866 C.ar    1  UNL1        0.0055
     33 C         141.1608  143.5814  164.9852 C.ar    1  UNL1        0.0025
     34 C         142.0168  144.5051  164.1704 C.ar    1  UNL1        0.0296
     35 C         143.5116  144.4142  164.2570 C.ar    1  UNL1        0.1401
     36 F         144.3676  145.3380  163.4423 F       1  UNL1       -0.2042
     37 C         144.1502  143.3996  165.1584 C.ar    1  UNL1        0.0296
     38 C         143.2941  142.4758  165.9732 C.ar    1  UNL1        0.0025
     39 C         141.0132  142.2042  159.3549 C.3     1  UNL1        0.1245
     40 C         139.7511  143.0100  159.4430 C.3     1  UNL1        0.0969
     41 N         139.6082  144.0671  160.4975 N.3     1  UNL1       -0.2711
     42 C         140.1680  145.4572  160.4339 C.3     1  UNL1        0.0722
     43 C         139.7863  146.1691  161.6978 C.3     1  UNL1        0.0188
     44 C         138.9905  145.2187  162.5427 C.3     1  UNL1        0.0188
     45 C         138.8805  143.9196  161.8009 C.3     1  UNL1        0.0722
@<TRIPOS>BOND
     1    23    24    1
     2    24    25   ar
     3    25    26   ar
     4    26    27   ar
     5    27    28   ar
     6    28    17    1
     7    17    18    1
     8    18    19    1
     9    19    20    1
    10    20     1    1
    11     1     2   ar
    12     2     3   ar
    13     3     6    1
    14     6     7   ar
    15     7     8   ar
    16     8     9   ar
    17     9    10    1
    18     9    11   ar
    19    11    13    1
    20    13    14    1
    21    13    15    1
    22    13    16    1
    23    11    12   ar
    24     3     4   ar
    25     4     5   ar
    26     5    39    1
    27    39    40    1
    28    40    41    1
    29    41    42    1
    30    42    43    1
    31    43    44    1
    32    44    45    1
    33    20    21    1
    34    21    22    1
    35    28    29   ar
    36    29    32    1
    37    32    33   ar
    38    33    34   ar
    39    34    35   ar
    40    35    36    1
    41    35    37   ar
    42    37    38   ar
    43    29    24   ar
    44    38    32   ar
    45    22    17    1
    46     5     1   ar
    47    45    41    1
    48    12     6   ar
    49    23    30    1
    50    23    31    1
@<TRIPOS>MOLECULE
*****
 45 50 0 0 0
SMALL
GASTEIGER

@<TRIPOS>ATOM
      1 C         139.5822  141.5341  160.1063 C.ar    1  UNL1        0.1200
      2 N         138.2996  141.4715  159.3310 N.ar    1  UNL1       -0.2309
      3 C         138.6028  141.8216  157.9043 C.ar    1  UNL1        0.0997
      4 C         140.0728  142.1006  157.7978 C.ar    1  UNL1        0.0961
      5 N         140.6781  141.9229  159.1587 N.ar    1  UNL1       -0.3123
      6 C         137.6103  141.8820  156.7813 C.ar    1  UNL1        0.0193
      7 C         137.7966  142.8700  155.6680 C.ar    1  UNL1        0.0038
      8 C         136.8041  142.9304  154.5450 C.ar    1  UNL1        0.0296
      9 C         135.6253  142.0030  154.5352 C.ar    1  UNL1        0.1440
     10 F         134.6327  142.0635  153.4122 F       1  UNL1       -0.2042
     11 C         135.4389  141.0151  155.6485 C.ar    1  UNL1        0.0988
     12 C         136.4314  140.9546  156.7715 C.ar    1  UNL1        0.0077
     13 C         134.2601  140.0877  155.6386 C.3     1  UNL1        0.4207
     14 F         133.0811  139.1602  155.6288 F       1  UNL1       -0.1658
     15 F         133.3868  141.1921  156.1560 F       1  UNL1       -0.1658
     16 F         135.1332  138.9832  155.1212 F       1  UNL1       -0.1658
     17 N         140.0588  140.7017  164.5029 N.pl3   1  UNL1       -0.2931
     18 C         140.2742  139.6036  163.5041 C.3     1  UNL1        0.0926
     19 C         140.1153  139.8811  162.0385 C.3     1  UNL1        0.0290
     20 C         139.7411  141.2566  161.5718 C.3     1  UNL1        0.0603
     21 C         139.5257  142.3548  162.5707 C.3     1  UNL1        0.0290
     22 C         139.6846  142.0773  164.0362 C.3     1  UNL1        0.0926
     23 N         143.0937  140.2752  168.6990 N.pl3   1  UNL1       -0.3425
     24 C         141.7351  140.2110  168.0665 C.ar    1  UNL1        0.1298
     25 N         140.5354  139.8695  168.8995 N.ar    1  UNL1       -0.2094
     26 C         139.1768  139.8054  168.2670 C.ar    1  UNL1        0.2012
     27 N         139.0179  140.0828  166.8015 N.ar    1  UNL1       -0.2089
     28 C         140.2176  140.4243  165.9685 C.ar    1  UNL1        0.1361
     29 C         141.5762  140.4884  166.6010 C.ar    1  UNL1        0.0628
     30 H         143.1980  140.0931  169.6609 H       1  UNL1        0.1437
     31 H         143.8812  140.4993  168.1522 H       1  UNL1        0.1437
     32 C         142.7760  140.8300  165.7679 C.ar    1  UNL1        0.0055
     33 C         143.1384  142.2656  165.5279 C.ar    1  UNL1        0.0025
     34 C         144.3381  142.6072  164.6949 C.ar    1  UNL1        0.0296
     35 C         145.1755  141.5131  164.1017 C.ar    1  UNL1        0.1401
     36 F         146.3752  141.8547  163.2687 F       1  UNL1       -0.2042
     37 C         144.8131  140.0775  164.3417 C.ar    1  UNL1        0.0296
     38 C         143.6133  139.7359  165.1748 C.ar    1  UNL1        0.0025
     39 C         142.1252  142.1025  159.5103 C.3     1  UNL1        0.1245
     40 C         143.1383  141.0940  159.0557 C.3     1  UNL1        0.0969
     41 N         143.2330  139.7640  159.7427 N.3     1  UNL1       -0.2711
     42 C         144.0479  139.4587  160.9644 C.3     1  UNL1        0.0722
     43 C         143.8480  138.0117  161.3054 C.3     1  UNL1        0.0188
     44 C         142.9096  137.4227  160.2942 C.3     1  UNL1        0.0188
     45 C         142.5295  138.5056  159.3284 C.3     1  UNL1        0.0722
@<TRIPOS>BOND
     1    23    24    1
     2    24    25   ar
     3    25    26   ar
     4    26    27   ar
     5    27    28   ar
     6    28    17    1
     7    17    18    1
     8    18    19    1
     9    19    20    1
    10    20     1    1
    11     1     2   ar
    12     2     3   ar
    13     3     6    1
    14     6     7   ar
    15     7     8   ar
    16     8     9   ar
    17     9    10    1
    18     9    11   ar
    19    11    13    1
    20    13    14    1
    21    13    15    1
    22    13    16    1
    23    11    12   ar
    24     3     4   ar
    25     4     5   ar
    26     5    39    1
    27    39    40    1
    28    40    41    1
    29    41    42    1
    30    42    43    1
    31    43    44    1
    32    44    45    1
    33    20    21    1
    34    21    22    1
    35    28    29   ar
    36    29    32    1
    37    32    33   ar
    38    33    34   ar
    39    34    35   ar
    40    35    36    1
    41    35    37   ar
    42    37    38   ar
    43    29    24   ar
    44    38    32   ar
    45    22    17    1
    46     5     1   ar
    47    45    41    1
    48    12     6   ar
    49    23    30    1
    50    23    31    1
@<TRIPOS>MOLECULE
*****
 45 50 0 0 0
SMALL
GASTEIGER

@<TRIPOS>ATOM
      1 C         142.2660  143.7296  161.7456 C.ar    1  UNL1        0.1200
      2 N         142.9579  143.1491  160.5480 N.ar    1  UNL1       -0.2309
      3 C         142.4802  143.8881  159.3332 C.ar    1  UNL1        0.0997
      4 C         141.4931  144.9254  159.7801 C.ar    1  UNL1        0.0961
      5 N         141.3607  144.8274  161.2710 N.ar    1  UNL1       -0.3123
      6 C         142.9135  143.6344  157.9198 C.ar    1  UNL1        0.0193
      7 C         143.9942  142.6340  157.6347 C.ar    1  UNL1        0.0038
      8 C         144.4276  142.3803  156.2213 C.ar    1  UNL1        0.0296
      9 C         143.7802  143.1270  155.0929 C.ar    1  UNL1        0.1440
     10 F         144.2135  142.8734  153.6794 F       1  UNL1       -0.2042
     11 C         142.6995  144.1275  155.3779 C.ar    1  UNL1        0.0988
     12 C         142.2662  144.3812  156.7914 C.ar    1  UNL1        0.0077
     13 C         142.0522  144.8742  154.2496 C.3     1  UNL1        0.4207
     14 F         141.4048  145.6209  153.1211 F       1  UNL1       -0.1658
     15 F         140.7415  144.2171  154.5665 F       1  UNL1       -0.1658
     16 F         143.3627  145.5314  153.9325 F       1  UNL1       -0.1658
     17 N         142.8107  142.4095  166.0130 N.pl3   1  UNL1       -0.2931
     18 C         141.4699  142.8891  165.5416 C.3     1  UNL1        0.0926
     19 C         141.2883  143.3291  164.1191 C.3     1  UNL1        0.0290
     20 C         142.4475  143.2896  163.1680 C.3     1  UNL1        0.0603
     21 C         143.7884  142.8100  163.6395 C.3     1  UNL1        0.0290
     22 C         143.9699  142.3700  165.0619 C.3     1  UNL1        0.0926
     23 N         141.9697  138.9461  169.7942 N.pl3   1  UNL1       -0.3425
     24 C         142.5717  140.2378  169.3261 C.ar    1  UNL1        0.1298
     25 N         143.3554  141.0893  170.2803 N.ar    1  UNL1       -0.2094
     26 C         143.9574  142.3810  169.8122 C.ar    1  UNL1        0.2012
     27 N         143.7759  142.8211  168.3898 N.ar    1  UNL1       -0.2089
     28 C         142.9923  141.9695  167.4355 C.ar    1  UNL1        0.1361
     29 C         142.3902  140.6778  167.9036 C.ar    1  UNL1        0.0628
     30 H         142.0888  138.6573  170.7278 H       1  UNL1        0.1437
     31 H         141.4553  138.3872  169.1679 H       1  UNL1        0.1437
     32 C         141.6065  139.8262  166.9493 C.ar    1  UNL1        0.0055
     33 C         142.3200  138.8861  166.0235 C.ar    1  UNL1        0.0025
     34 C         141.5365  138.0346  165.0691 C.ar    1  UNL1        0.0296
     35 C         140.0393  138.1231  165.0406 C.ar    1  UNL1        0.1401
     36 F         139.2557  137.2715  164.0862 F       1  UNL1       -0.2042
     37 C         139.3258  139.0632  165.9664 C.ar    1  UNL1        0.0296
     38 C         140.1094  139.9148  166.9208 C.ar    1  UNL1        0.0025
     39 C         140.4781  145.6780  162.1356 C.3     1  UNL1        0.1245
     40 C         138.9942  145.4584  162.1381 C.3     1  UNL1        0.0969
     41 N         138.4400  144.0825  162.3613 N.3     1  UNL1       -0.2711
     42 C         137.7447  143.6025  163.6007 C.3     1  UNL1        0.0722
     43 C         137.3588  142.1684  163.3899 C.3     1  UNL1        0.0188
     44 C         137.8157  141.7621  162.0201 C.3     1  UNL1        0.0188
     45 C         138.4839  142.9451  161.3844 C.3     1  UNL1        0.0722
@<TRIPOS>BOND
     1    23    24    1
     2    24    25   ar
     3    25    26   ar
     4    26    27   ar
     5    27    28   ar
     6    28    17    1
     7    17    18    1
     8    18    19    1
     9    19    20    1
    10    20     1    1
    11     1     2   ar
    12     2     3   ar
    13     3     6    1
    14     6     7   ar
    15     7     8   ar
    16     8     9   ar
    17     9    10    1
    18     9    11   ar
    19    11    13    1
    20    13    14    1
    21    13    15    1
    22    13    16    1
    23    11    12   ar
    24     3     4   ar
    25     4     5   ar
    26     5    39    1
    27    39    40    1
    28    40    41    1
    29    41    42    1
    30    42    43    1
    31    43    44    1
    32    44    45    1
    33    20    21    1
    34    21    22    1
    35    28    29   ar
    36    29    32    1
    37    32    33   ar
    38    33    34   ar
    39    34    35   ar
    40    35    36    1
    41    35    37   ar
    42    37    38   ar
    43    29    24   ar
    44    38    32   ar
    45    22    17    1
    46     5     1   ar
    47    45    41    1
    48    12     6   ar
    49    23    30    1
    50    23    31    1
@<TRIPOS>MOLECULE
*****
 45 50 0 0 0
SMALL
GASTEIGER

@<TRIPOS>ATOM
      1 C         140.8531  139.5445  163.1287 C.ar    1  UNL1        0.1200
      2 N         140.2310  139.9349  164.4366 N.ar    1  UNL1       -0.2309
      3 C         141.1505  139.4948  165.5370 C.ar    1  UNL1        0.0997
      4 C         142.3410  138.8325  164.9091 C.ar    1  UNL1        0.0961
      5 N         142.1572  138.8632  163.4207 N.ar    1  UNL1       -0.3123
      6 C         140.9200  139.6839  167.0070 C.ar    1  UNL1        0.0193
      7 C         139.5653  140.0890  167.5078 C.ar    1  UNL1        0.0038
      8 C         139.3349  140.2780  168.9779 C.ar    1  UNL1        0.0296
      9 C         140.4591  140.0620  169.9472 C.ar    1  UNL1        0.1440
     10 F         140.2287  140.2511  171.4172 F       1  UNL1       -0.2042
     11 C         141.8138  139.6570  169.4463 C.ar    1  UNL1        0.0988
     12 C         142.0443  139.4679  167.9763 C.ar    1  UNL1        0.0077
     13 C         142.9379  139.4410  170.4156 C.3     1  UNL1        0.4207
     14 F         144.0622  139.2250  171.3850 F       1  UNL1       -0.1658
     15 F         142.7275  137.9583  170.3294 F       1  UNL1       -0.1658
     16 F         143.1484  140.9236  170.5019 F       1  UNL1       -0.1658
     17 N         139.1130  140.2871  159.0457 N.pl3   1  UNL1       -0.2931
     18 C         139.3103  138.8822  159.5327 C.3     1  UNL1        0.0926
     19 C         139.8903  138.6346  160.8938 C.3     1  UNL1        0.0290
     20 C         140.2731  139.7920  161.7677 C.3     1  UNL1        0.0603
     21 C         140.0759  141.1970  161.2806 C.3     1  UNL1        0.0290
     22 C         139.4959  141.4445  159.9197 C.3     1  UNL1        0.0926
     23 N         139.7690  141.2015  153.9729 N.pl3   1  UNL1       -0.3425
     24 C         138.8610  140.9919  155.1483 C.ar    1  UNL1        0.1298
     25 N         137.3731  141.0298  154.9627 N.ar    1  UNL1       -0.2094
     26 C         136.4651  140.8201  156.1381 C.ar    1  UNL1        0.2012
     27 N         137.0450  140.5725  157.4991 N.ar    1  UNL1       -0.2089
     28 C         138.5330  140.5347  157.6847 C.ar    1  UNL1        0.1361
     29 C         139.4410  140.7443  156.5093 C.ar    1  UNL1        0.0628
     30 H         139.3883  141.3640  153.0796 H       1  UNL1        0.1437
     31 H         140.7456  141.1767  154.0947 H       1  UNL1        0.1437
     32 C         140.9290  140.7064  156.6949 C.ar    1  UNL1        0.0055
     33 C         141.6623  139.4006  156.6105 C.ar    1  UNL1        0.0025
     34 C         143.1503  139.3627  156.7961 C.ar    1  UNL1        0.0296
     35 C         143.9050  140.6306  157.0661 C.ar    1  UNL1        0.1401
     36 F         145.3930  140.5926  157.2517 F       1  UNL1       -0.2042
     37 C         143.1717  141.9364  157.1505 C.ar    1  UNL1        0.0296
     38 C         141.6837  141.9743  156.9648 C.ar    1  UNL1        0.0025
     39 C         143.1101  138.3098  162.4031 C.3     1  UNL1        0.1245
     40 C         144.1662  139.1923  161.8065 C.3     1  UNL1        0.0969
     41 N         144.4973  140.5061  162.4502 N.3     1  UNL1       -0.2711
     42 C         144.0488  141.8572  161.9776 C.3     1  UNL1        0.0722
     43 C         144.6092  142.8857  162.9147 C.3     1  UNL1        0.0188
     44 C         145.4041  142.1700  163.9665 C.3     1  UNL1        0.0188
     45 C         145.3349  140.6994  163.6794 C.3     1  UNL1        0.0722
@<TRIPOS>BOND
     1    23    24    1
     2    24    25   ar
     3    25    26   ar
     4    26    27   ar
     5    27    28   ar
     6    28    17    1
     7    17    18    1
     8    18    19    1
     9    19    20    1
    10    20     1    1
    11     1     2   ar
    12     2     3   ar
    13     3     6    1
    14     6     7   ar
    15     7     8   ar
    16     8     9   ar
    17     9    10    1
    18     9    11   ar
    19    11    13    1
    20    13    14    1
    21    13    15    1
    22    13    16    1
    23    11    12   ar
    24     3     4   ar
    25     4     5   ar
    26     5    39    1
    27    39    40    1
    28    40    41    1
    29    41    42    1
    30    42    43    1
    31    43    44    1
    32    44    45    1
    33    20    21    1
    34    21    22    1
    35    28    29   ar
    36    29    32    1
    37    32    33   ar
    38    33    34   ar
    39    34    35   ar
    40    35    36    1
    41    35    37   ar
    42    37    38   ar
    43    29    24   ar
    44    38    32   ar
    45    22    17    1
    46     5     1   ar
    47    45    41    1
    48    12     6   ar
    49    23    30    1
    50    23    31    1
