@<TRIPOS>MOLECULE
*****
 38 42 0 0 0
SMALL
GASTEIGER

@<TRIPOS>ATOM
      1 N         137.8596  142.9461  163.1568 N.3     1  UNL1       -0.2711
      2 C         138.0058  142.6824  161.6874 C.3     1  UNL1        0.0735
      3 C         138.0229  141.2723  161.1766 C.3     1  UNL1        0.0331
      4 C         137.8938  140.1258  162.1351 C.3     1  UNL1        0.0570
      5 C         137.7476  140.3895  163.6045 C.3     1  UNL1        0.0331
      6 C         137.7304  141.7997  164.1154 C.3     1  UNL1        0.0735
      7 N         137.9109  138.7155  161.6243 N.3     1  UNL1       -0.2934
      8 H         137.3138  138.6945  160.7976 H       1  UNL1        0.1236
      9 C         139.2102  138.0740  161.2364 C.3     1  UNL1        0.1152
     10 C         140.4241  138.2579  162.0981 C.ar    1  UNL1        0.0765
     11 C         140.6056  137.4176  163.3272 C.ar    1  UNL1        0.0193
     12 C         141.8195  137.6014  164.1890 C.ar    1  UNL1        0.0411
     13 C         142.8520  138.6257  163.8215 C.ar    1  UNL1        0.1708
     14 C         142.6704  139.4660  162.5923 C.ar    1  UNL1        0.1682
     15 N         141.4565  139.2822  161.7306 N.ar    1  UNL1       -0.2304
     16 N         143.7028  140.4903  162.2249 N.am    1  UNL1       -0.2639
     17 C         144.9168  140.6742  163.0866 C.2     1  UNL1        0.2718
     18 O         145.9492  141.6984  162.7192 O.2     1  UNL1       -0.2707
     19 C         145.0983  139.8338  164.3158 C.3     1  UNL1        0.2898
     20 O         144.0659  138.8096  164.6832 O.3     1  UNL1       -0.4628
     21 H         143.5837  141.0419  161.4181 H       1  UNL1        0.1565
     22 C         137.8424  144.3564  163.6677 C.3     1  UNL1        0.0942
     23 C         138.9722  144.8606  164.5158 C.3     1  UNL1        0.1157
     24 C         140.9040  142.0519  167.4534 C.ar    1  UNL1        0.0057
     25 C         142.3002  141.5592  167.2130 C.ar    1  UNL1        0.0012
     26 C         143.0525  142.0027  165.9933 C.ar    1  UNL1        0.0380
     27 C         142.4086  142.9389  165.0142 C.ar    1  UNL1        0.1528
     28 C         141.0124  143.4316  165.2546 C.ar    1  UNL1        0.0879
     29 C         140.2601  142.9882  166.4742 C.ar    1  UNL1        0.0160
     30 N         140.3684  144.3679  164.2754 N.am    1  UNL1       -0.2515
     31 C         141.1206  144.8114  163.0558 C.2     1  UNL1        0.2740
     32 O         140.4767  145.7476  162.0766 O.2     1  UNL1       -0.2705
     33 C         142.5169  144.3186  162.8154 C.3     1  UNL1        0.2900
     34 O         143.1608  143.3824  163.7946 O.3     1  UNL1       -0.4643
     35 C         139.5325  140.2430  168.7170 C.3     1  UNL1        0.0367
     36 C         140.1518  141.6085  168.6730 C.3     1  UNL1        0.1328
     37 O         140.0187  142.5305  169.8486 O.3     1  UNL1       -0.3801
     38 H         139.5073  142.0925  170.5468 H       1  UNL1        0.2108
@<TRIPOS>BOND
     1    35    36    1
     2    36    37    1
     3    36    24    1
     4    24    25   ar
     5    25    26   ar
     6    26    27   ar
     7    27    28   ar
     8    28    29   ar
     9    28    30    1
    10    30    23    1
    11    23    22    1
    12    22     1    1
    13     1     2    1
    14     2     3    1
    15     3     4    1
    16     4     7    1
    17     7     9    1
    18     9    10    1
    19    10    11   ar
    20    11    12   ar
    21    12    13   ar
    22    13    14   ar
    23    14    15   ar
    24    14    16    1
    25    16    17   am
    26    17    18    2
    27    17    19    1
    28    19    20    1
    29     4     5    1
    30     5     6    1
    31    30    31   am
    32    31    32    2
    33    31    33    1
    34    33    34    1
    35    29    24   ar
    36     6     1    1
    37    34    27    1
    38    15    10   ar
    39    20    13    1
    40    37    38    1
    41     7     8    1
    42    16    21    1
@<TRIPOS>MOLECULE
*****
 38 42 0 0 0
SMALL
GASTEIGER

@<TRIPOS>ATOM
      1 N         144.5498  140.1721  163.4309 N.3     1  UNL1       -0.2711
      2 C         143.8902  139.3200  164.4744 C.3     1  UNL1        0.0735
      3 C         142.7996  138.3668  164.0847 C.3     1  UNL1        0.0331
      4 C         142.3685  138.2657  162.6516 C.3     1  UNL1        0.0570
      5 C         143.0280  139.1179  161.6081 C.3     1  UNL1        0.0331
      6 C         144.1187  140.0711  161.9978 C.3     1  UNL1        0.0735
      7 N         141.2778  137.3125  162.2619 N.3     1  UNL1       -0.2934
      8 H         141.1315  136.6913  163.0576 H       1  UNL1        0.1236
      9 C         139.9288  137.8369  161.8681 C.3     1  UNL1        0.1152
     10 C         139.3444  139.0176  162.5853 C.ar    1  UNL1        0.0765
     11 C         138.7142  138.8388  163.9346 C.ar    1  UNL1        0.0193
     12 C         138.1298  140.0196  164.6518 C.ar    1  UNL1        0.0411
     13 C         138.1757  141.3791  164.0197 C.ar    1  UNL1        0.1708
     14 C         138.8060  141.5578  162.6703 C.ar    1  UNL1        0.1682
     15 N         139.3903  140.3771  161.9531 N.ar    1  UNL1       -0.2304
     16 N         138.8519  142.9173  162.0381 N.am    1  UNL1       -0.2639
     17 C         138.2676  144.0981  162.7554 C.2     1  UNL1        0.2718
     18 O         138.3135  145.4576  162.1232 O.2     1  UNL1       -0.2707
     19 C         137.6373  143.9193  164.1047 C.3     1  UNL1        0.2898
     20 O         137.5914  142.5598  164.7369 O.3     1  UNL1       -0.4628
     21 H         139.2656  143.0347  161.1525 H       1  UNL1        0.1565
     22 C         145.6404  141.1254  163.8206 C.3     1  UNL1        0.0942
     23 C         145.2960  142.5081  164.2890 C.3     1  UNL1        0.1157
     24 C         142.3585  141.9160  167.6461 C.ar    1  UNL1        0.0057
     25 C         140.9540  142.4251  167.5122 C.ar    1  UNL1        0.0012
     26 C         140.5286  143.1316  166.2592 C.ar    1  UNL1        0.0380
     27 C         141.5077  143.3290  165.1402 C.ar    1  UNL1        0.1528
     28 C         142.9122  142.8199  165.2741 C.ar    1  UNL1        0.0879
     29 C         143.3377  142.1134  166.5271 C.ar    1  UNL1        0.0160
     30 N         143.8915  143.0173  164.1551 N.am    1  UNL1       -0.2515
     31 C         143.4661  143.7238  162.9021 C.2     1  UNL1        0.2740
     32 O         144.4452  143.9212  161.7831 O.2     1  UNL1       -0.2705
     33 C         142.0614  144.2329  162.7682 C.3     1  UNL1        0.2900
     34 O         141.0823  144.0355  163.8873 O.3     1  UNL1       -0.4643
     35 C         143.0393  141.9933  170.1522 C.3     1  UNL1        0.0367
     36 C         142.7839  141.2095  168.8990 C.3     1  UNL1        0.1328
     37 O         142.9540  139.7192  168.8988 O.3     1  UNL1       -0.3801
     38 H         143.2303  139.4252  169.7809 H       1  UNL1        0.2108
@<TRIPOS>BOND
     1    35    36    1
     2    36    37    1
     3    36    24    1
     4    24    25   ar
     5    25    26   ar
     6    26    27   ar
     7    27    28   ar
     8    28    29   ar
     9    28    30    1
    10    30    23    1
    11    23    22    1
    12    22     1    1
    13     1     2    1
    14     2     3    1
    15     3     4    1
    16     4     7    1
    17     7     9    1
    18     9    10    1
    19    10    11   ar
    20    11    12   ar
    21    12    13   ar
    22    13    14   ar
    23    14    15   ar
    24    14    16    1
    25    16    17   am
    26    17    18    2
    27    17    19    1
    28    19    20    1
    29     4     5    1
    30     5     6    1
    31    30    31   am
    32    31    32    2
    33    31    33    1
    34    33    34    1
    35    29    24   ar
    36     6     1    1
    37    34    27    1
    38    15    10   ar
    39    20    13    1
    40    37    38    1
    41     7     8    1
    42    16    21    1
@<TRIPOS>MOLECULE
*****
 38 42 0 0 0
SMALL
GASTEIGER

@<TRIPOS>ATOM
      1 N         141.4082  138.3542  164.0116 N.3     1  UNL1       -0.2711
      2 C         141.5991  138.8150  162.5969 C.3     1  UNL1        0.0735
      3 C         142.8897  139.4593  162.1856 C.3     1  UNL1        0.0331
      4 C         143.9895  139.6427  163.1890 C.3     1  UNL1        0.0570
      5 C         143.7987  139.1819  164.6036 C.3     1  UNL1        0.0331
      6 C         142.5080  138.5376  165.0149 C.3     1  UNL1        0.0735
      7 N         145.2802  140.2869  162.7777 N.3     1  UNL1       -0.2934
      8 H         145.3837  140.1256  161.7759 H       1  UNL1        0.1236
      9 C         145.4913  141.7547  163.0039 C.3     1  UNL1        0.1152
     10 C         144.3158  142.6860  163.0313 C.ar    1  UNL1        0.0765
     11 C         143.8036  143.2089  164.3406 C.ar    1  UNL1        0.0193
     12 C         142.6281  144.1403  164.3680 C.ar    1  UNL1        0.0411
     13 C         141.9647  144.5487  163.0862 C.ar    1  UNL1        0.1708
     14 C         142.4770  144.0257  161.7769 C.ar    1  UNL1        0.1682
     15 N         143.6525  143.0944  161.7495 N.ar    1  UNL1       -0.2304
     16 N         141.8136  144.4341  160.4950 N.am    1  UNL1       -0.2639
     17 C         140.6381  145.3655  160.5224 C.2     1  UNL1        0.2718
     18 O         139.9747  145.7739  159.2406 O.2     1  UNL1       -0.2707
     19 C         140.1259  145.8884  161.8317 C.3     1  UNL1        0.2898
     20 O         140.7892  145.4800  163.1136 O.3     1  UNL1       -0.4628
     21 H         142.1498  144.0909  159.6357 H       1  UNL1        0.1565
     22 C         140.1175  137.7100  164.4229 C.3     1  UNL1        0.0942
     23 C         139.0104  138.5460  164.9934 C.3     1  UNL1        0.1157
     24 C         140.6710  140.5344  168.6728 C.ar    1  UNL1        0.0057
     25 C         140.8074  142.0274  168.7217 C.ar    1  UNL1        0.0012
     26 C         140.3902  142.8575  167.5441 C.ar    1  UNL1        0.0380
     27 C         139.8367  142.1947  166.3176 C.ar    1  UNL1        0.1528
     28 C         139.7003  140.7018  166.2687 C.ar    1  UNL1        0.0879
     29 C         140.1175  139.8716  167.4464 C.ar    1  UNL1        0.0160
     30 N         139.1468  140.0389  165.0422 N.am    1  UNL1       -0.2515
     31 C         138.7296  140.8691  163.8646 C.2     1  UNL1        0.2740
     32 O         138.1761  140.2063  162.6381 O.2     1  UNL1       -0.2705
     33 C         138.8660  142.3621  163.9135 C.3     1  UNL1        0.2900
     34 O         139.4195  143.0249  165.1400 O.3     1  UNL1       -0.4643
     35 C         142.4777  139.1433  169.9181 C.3     1  UNL1        0.0367
     36 C         141.0882  139.7042  169.8504 C.3     1  UNL1        0.1328
     37 O         140.1159  139.4350  170.9604 O.3     1  UNL1       -0.3801
     38 H         140.5423  138.8873  171.6380 H       1  UNL1        0.2108
@<TRIPOS>BOND
     1    35    36    1
     2    36    37    1
     3    36    24    1
     4    24    25   ar
     5    25    26   ar
     6    26    27   ar
     7    27    28   ar
     8    28    29   ar
     9    28    30    1
    10    30    23    1
    11    23    22    1
    12    22     1    1
    13     1     2    1
    14     2     3    1
    15     3     4    1
    16     4     7    1
    17     7     9    1
    18     9    10    1
    19    10    11   ar
    20    11    12   ar
    21    12    13   ar
    22    13    14   ar
    23    14    15   ar
    24    14    16    1
    25    16    17   am
    26    17    18    2
    27    17    19    1
    28    19    20    1
    29     4     5    1
    30     5     6    1
    31    30    31   am
    32    31    32    2
    33    31    33    1
    34    33    34    1
    35    29    24   ar
    36     6     1    1
    37    34    27    1
    38    15    10   ar
    39    20    13    1
    40    37    38    1
    41     7     8    1
    42    16    21    1
@<TRIPOS>MOLECULE
*****
 38 42 0 0 0
SMALL
GASTEIGER

@<TRIPOS>ATOM
      1 N         141.8103  138.1643  164.0087 N.3     1  UNL1       -0.2711
      2 C         142.3687  138.5547  162.6724 C.3     1  UNL1        0.0735
      3 C         143.6366  139.3522  162.5934 C.3     1  UNL1        0.0331
      4 C         144.3461  139.7593  163.8507 C.3     1  UNL1        0.0570
      5 C         143.7877  139.3690  165.1870 C.3     1  UNL1        0.0331
      6 C         142.5197  138.5714  165.2660 C.3     1  UNL1        0.0735
      7 N         145.6141  140.5569  163.7717 N.3     1  UNL1       -0.2934
      8 H         146.3275  139.9384  163.3859 H       1  UNL1        0.1236
      9 C         145.6557  141.8215  162.9661 C.3     1  UNL1        0.1152
     10 C         144.4966  142.7728  163.0030 C.ar    1  UNL1        0.0765
     11 C         144.0770  143.3936  164.3025 C.ar    1  UNL1        0.0193
     12 C         142.9178  144.3450  164.3395 C.ar    1  UNL1        0.0411
     13 C         142.1783  144.6755  163.0770 C.ar    1  UNL1        0.1708
     14 C         142.5979  144.0546  161.7775 C.ar    1  UNL1        0.1682
     15 N         143.7570  143.1033  161.7406 N.ar    1  UNL1       -0.2304
     16 N         141.8583  144.3851  160.5151 N.am    1  UNL1       -0.2639
     17 C         140.6991  145.3364  160.5521 C.2     1  UNL1        0.2718
     18 O         139.9595  145.6669  159.2896 O.2     1  UNL1       -0.2707
     19 C         140.2796  145.9572  161.8515 C.3     1  UNL1        0.2898
     20 O         141.0191  145.6268  163.1140 O.3     1  UNL1       -0.4628
     21 H         142.1337  143.9776  159.6622 H       1  UNL1        0.1565
     22 C         140.5423  137.3667  164.0877 C.3     1  UNL1        0.0942
     23 C         139.2650  138.0289  164.5119 C.3     1  UNL1        0.1157
     24 C         140.1503  142.0001  166.4342 C.ar    1  UNL1        0.0057
     25 C         139.7075  143.2701  165.7701 C.ar    1  UNL1        0.0012
     26 C         138.9695  143.2164  164.4653 C.ar    1  UNL1        0.0380
     27 C         138.6743  141.8926  163.8246 C.ar    1  UNL1        0.1528
     28 C         139.1172  140.6227  164.4886 C.ar    1  UNL1        0.0879
     29 C         139.8552  140.6764  165.7934 C.ar    1  UNL1        0.0160
     30 N         138.8221  139.2989  163.8479 N.am    1  UNL1       -0.2515
     31 C         138.0841  139.2451  162.5431 C.2     1  UNL1        0.2740
     32 O         137.7889  137.9214  161.9023 O.2     1  UNL1       -0.2705
     33 C         137.6412  140.5152  161.8790 C.3     1  UNL1        0.2900
     34 O         137.9363  141.8389  162.5198 O.3     1  UNL1       -0.4643
     35 C         142.3855  142.1450  167.7506 C.3     1  UNL1        0.0367
     36 C         140.8883  142.0539  167.7389 C.3     1  UNL1        0.1328
     37 O         140.1292  142.0165  169.0321 O.3     1  UNL1       -0.3801
     38 H         140.7524  142.0595  169.7742 H       1  UNL1        0.2108
@<TRIPOS>BOND
     1    35    36    1
     2    36    37    1
     3    36    24    1
     4    24    25   ar
     5    25    26   ar
     6    26    27   ar
     7    27    28   ar
     8    28    29   ar
     9    28    30    1
    10    30    23    1
    11    23    22    1
    12    22     1    1
    13     1     2    1
    14     2     3    1
    15     3     4    1
    16     4     7    1
    17     7     9    1
    18     9    10    1
    19    10    11   ar
    20    11    12   ar
    21    12    13   ar
    22    13    14   ar
    23    14    15   ar
    24    14    16    1
    25    16    17   am
    26    17    18    2
    27    17    19    1
    28    19    20    1
    29     4     5    1
    30     5     6    1
    31    30    31   am
    32    31    32    2
    33    31    33    1
    34    33    34    1
    35    29    24   ar
    36     6     1    1
    37    34    27    1
    38    15    10   ar
    39    20    13    1
    40    37    38    1
    41     7     8    1
    42    16    21    1
@<TRIPOS>MOLECULE
*****
 38 42 0 0 0
SMALL
GASTEIGER

@<TRIPOS>ATOM
      1 N         141.1516  144.7245  162.8798 N.3     1  UNL1       -0.2711
      2 C         142.1891  144.7054  163.9629 C.3     1  UNL1        0.0735
      3 C         143.5504  144.1388  163.6875 C.3     1  UNL1        0.0331
      4 C         143.8741  143.5913  162.3291 C.3     1  UNL1        0.0570
      5 C         142.8366  143.6105  161.2459 C.3     1  UNL1        0.0331
      6 C         141.4753  144.1771  161.5213 C.3     1  UNL1        0.0735
      7 N         145.2355  143.0247  162.0536 N.3     1  UNL1       -0.2934
      8 H         145.9103  143.7532  162.2867 H       1  UNL1        0.1236
      9 C         145.6848  141.7775  162.7556 C.3     1  UNL1        0.1152
     10 C         144.6797  140.7380  163.1547 C.ar    1  UNL1        0.0765
     11 C         144.8123  140.0335  164.4723 C.ar    1  UNL1        0.0193
     12 C         143.8073  138.9940  164.8714 C.ar    1  UNL1        0.0411
     13 C         142.6697  138.6590  163.9529 C.ar    1  UNL1        0.1708
     14 C         142.5371  139.3635  162.6353 C.ar    1  UNL1        0.1682
     15 N         143.5421  140.4030  162.2362 N.ar    1  UNL1       -0.2304
     16 N         141.3995  139.0285  161.7168 N.am    1  UNL1       -0.2639
     17 C         140.3945  137.9890  162.1160 C.2     1  UNL1        0.2718
     18 O         139.2568  137.6540  161.1975 O.2     1  UNL1       -0.2707
     19 C         140.5270  137.2845  163.4335 C.3     1  UNL1        0.2898
     20 O         141.6647  137.6195  164.3520 O.3     1  UNL1       -0.4628
     21 H         141.3125  139.4909  160.8520 H       1  UNL1        0.1565
     22 C         139.7903  145.2912  163.1552 C.3     1  UNL1        0.0942
     23 C         138.8716  144.6009  164.1194 C.3     1  UNL1        0.1157
     24 C         140.5044  142.1000  167.4853 C.ar    1  UNL1        0.0057
     25 C         140.3621  140.6073  167.4479 C.ar    1  UNL1        0.0012
     26 C         139.6755  139.9482  166.2885 C.ar    1  UNL1        0.0380
     27 C         139.1313  140.7818  165.1665 C.ar    1  UNL1        0.1528
     28 C         139.2736  142.2745  165.2039 C.ar    1  UNL1        0.0879
     29 C         139.9601  142.9336  166.3633 C.ar    1  UNL1        0.0160
     30 N         138.7293  143.1082  164.0819 N.am    1  UNL1       -0.2515
     31 C         138.0428  142.4490  162.9225 C.2     1  UNL1        0.2740
     32 O         137.4985  143.2826  161.8006 O.2     1  UNL1       -0.2705
     33 C         137.9005  140.9562  162.8852 C.3     1  UNL1        0.2900
     34 O         138.4447  140.1226  164.0071 O.3     1  UNL1       -0.4643
     35 C         140.4068  143.6204  169.5897 C.3     1  UNL1        0.0367
     36 C         141.1910  142.7592  168.6447 C.3     1  UNL1        0.1328
     37 O         142.6617  142.5570  168.8590 O.3     1  UNL1       -0.3801
     38 H         142.9443  143.0486  169.6460 H       1  UNL1        0.2108
@<TRIPOS>BOND
     1    35    36    1
     2    36    37    1
     3    36    24    1
     4    24    25   ar
     5    25    26   ar
     6    26    27   ar
     7    27    28   ar
     8    28    29   ar
     9    28    30    1
    10    30    23    1
    11    23    22    1
    12    22     1    1
    13     1     2    1
    14     2     3    1
    15     3     4    1
    16     4     7    1
    17     7     9    1
    18     9    10    1
    19    10    11   ar
    20    11    12   ar
    21    12    13   ar
    22    13    14   ar
    23    14    15   ar
    24    14    16    1
    25    16    17   am
    26    17    18    2
    27    17    19    1
    28    19    20    1
    29     4     5    1
    30     5     6    1
    31    30    31   am
    32    31    32    2
    33    31    33    1
    34    33    34    1
    35    29    24   ar
    36     6     1    1
    37    34    27    1
    38    15    10   ar
    39    20    13    1
    40    37    38    1
    41     7     8    1
    42    16    21    1
@<TRIPOS>MOLECULE
*****
 38 42 0 0 0
SMALL
GASTEIGER

@<TRIPOS>ATOM
      1 N         143.4964  142.0882  163.8336 N.3     1  UNL1       -0.2711
      2 C         143.6591  142.7657  162.5052 C.3     1  UNL1        0.0735
      3 C         142.9206  144.0391  162.2173 C.3     1  UNL1        0.0331
      4 C         142.0194  144.6350  163.2577 C.3     1  UNL1        0.0570
      5 C         141.8566  143.9576  164.5861 C.3     1  UNL1        0.0331
      6 C         142.5951  142.6842  164.8740 C.3     1  UNL1        0.0735
      7 N         141.2808  145.9085  162.9698 N.3     1  UNL1       -0.2934
      8 H         141.8596  146.4449  162.3235 H       1  UNL1        0.1236
      9 C         139.9031  145.8593  162.3785 C.3     1  UNL1        0.1152
     10 C         139.2154  144.5399  162.1882 C.ar    1  UNL1        0.0765
     11 C         138.3345  143.9903  163.2707 C.ar    1  UNL1        0.0193
     12 C         137.6467  142.6708  163.0803 C.ar    1  UNL1        0.0411
     13 C         137.8399  141.9011  161.8074 C.ar    1  UNL1        0.1708
     14 C         138.7209  142.4509  160.7249 C.ar    1  UNL1        0.1682
     15 N         139.4086  143.7702  160.9153 N.ar    1  UNL1       -0.2304
     16 N         138.9141  141.6812  159.4520 N.am    1  UNL1       -0.2639
     17 C         138.2263  140.3617  159.2616 C.2     1  UNL1        0.2718
     18 O         138.4195  139.5920  157.9888 O.2     1  UNL1       -0.2707
     19 C         137.3454  139.8121  160.3441 C.3     1  UNL1        0.2898
     20 O         137.1522  140.5818  161.6170 O.3     1  UNL1       -0.4628
     21 H         139.4922  142.0419  158.7415 H       1  UNL1        0.1565
     22 C         144.2350  140.8147  164.1215 C.3     1  UNL1        0.0942
     23 C         143.5846  139.7392  164.9401 C.3     1  UNL1        0.1157
     24 C         139.7313  139.7741  167.2642 C.ar    1  UNL1        0.0057
     25 C         138.5289  139.0514  166.7336 C.ar    1  UNL1        0.0012
     26 C         138.6108  138.3169  165.4282 C.ar    1  UNL1        0.0380
     27 C         139.8952  138.3053  164.6535 C.ar    1  UNL1        0.1528
     28 C         141.0976  139.0281  165.1842 C.ar    1  UNL1        0.0879
     29 C         141.0157  139.7625  166.4895 C.ar    1  UNL1        0.0160
     30 N         142.3821  139.0164  164.4095 N.am    1  UNL1       -0.2515
     31 C         142.4640  138.2820  163.1042 C.2     1  UNL1        0.2740
     32 O         143.7484  138.2703  162.3295 O.2     1  UNL1       -0.2705
     33 C         141.2615  137.5592  162.5735 C.3     1  UNL1        0.2900
     34 O         139.9771  137.5709  163.3482 O.3     1  UNL1       -0.4643
     35 C         140.2948  141.8548  168.7145 C.3     1  UNL1        0.0367
     36 C         139.6494  140.5086  168.5695 C.3     1  UNL1        0.1328
     37 O         138.9220  139.8968  169.7300 O.3     1  UNL1       -0.3801
     38 H         138.9636  140.4973  170.4906 H       1  UNL1        0.2108
@<TRIPOS>BOND
     1    35    36    1
     2    36    37    1
     3    36    24    1
     4    24    25   ar
     5    25    26   ar
     6    26    27   ar
     7    27    28   ar
     8    28    29   ar
     9    28    30    1
    10    30    23    1
    11    23    22    1
    12    22     1    1
    13     1     2    1
    14     2     3    1
    15     3     4    1
    16     4     7    1
    17     7     9    1
    18     9    10    1
    19    10    11   ar
    20    11    12   ar
    21    12    13   ar
    22    13    14   ar
    23    14    15   ar
    24    14    16    1
    25    16    17   am
    26    17    18    2
    27    17    19    1
    28    19    20    1
    29     4     5    1
    30     5     6    1
    31    30    31   am
    32    31    32    2
    33    31    33    1
    34    33    34    1
    35    29    24   ar
    36     6     1    1
    37    34    27    1
    38    15    10   ar
    39    20    13    1
    40    37    38    1
    41     7     8    1
    42    16    21    1
@<TRIPOS>MOLECULE
*****
 38 42 0 0 0
SMALL
GASTEIGER

@<TRIPOS>ATOM
      1 N         142.1353  138.2462  164.1909 N.3     1  UNL1       -0.2711
      2 C         140.7936  138.0496  164.8320 C.3     1  UNL1        0.0735
      3 C         139.5816  137.8177  163.9792 C.3     1  UNL1        0.0331
      4 C         139.7113  137.7825  162.4853 C.3     1  UNL1        0.0570
      5 C         141.0531  137.9791  161.8441 C.3     1  UNL1        0.0331
      6 C         142.2651  138.2109  162.6969 C.3     1  UNL1        0.0735
      7 N         138.4993  137.5506  161.6324 N.3     1  UNL1       -0.2934
      8 H         138.0614  136.6934  161.9699 H       1  UNL1        0.1236
      9 C         137.4203  138.5903  161.5641 C.3     1  UNL1        0.1152
     10 C         137.7759  140.0459  161.6331 C.ar    1  UNL1        0.0765
     11 C         138.2258  140.7674  160.3974 C.ar    1  UNL1        0.0193
     12 C         138.5814  142.2231  160.4664 C.ar    1  UNL1        0.0411
     13 C         138.4871  142.9571  161.7712 C.ar    1  UNL1        0.1708
     14 C         138.0371  142.2355  163.0069 C.ar    1  UNL1        0.1682
     15 N         137.6815  140.7799  162.9378 N.ar    1  UNL1       -0.2304
     16 N         137.9428  142.9695  164.3116 N.am    1  UNL1       -0.2639
     17 C         138.2984  144.4252  164.3806 C.2     1  UNL1        0.2718
     18 O         138.2040  145.1592  165.6853 O.2     1  UNL1       -0.2707
     19 C         138.7483  145.1467  163.1449 C.3     1  UNL1        0.2898
     20 O         138.8426  144.4127  161.8402 O.3     1  UNL1       -0.4628
     21 H         137.6475  142.4960  165.1226 H       1  UNL1        0.1565
     22 C         143.3473  138.4781  165.0437 C.3     1  UNL1        0.0942
     23 C         143.8656  139.8708  165.2476 C.3     1  UNL1        0.1157
     24 C         141.9215  140.8557  169.1847 C.ar    1  UNL1        0.0057
     25 C         140.9635  142.0058  169.2811 C.ar    1  UNL1        0.0012
     26 C         140.6535  142.8277  168.0652 C.ar    1  UNL1        0.0380
     27 C         141.3015  142.4994  166.7529 C.ar    1  UNL1        0.1528
     28 C         142.2595  141.3493  166.6564 C.ar    1  UNL1        0.0879
     29 C         142.5695  140.5274  167.8723 C.ar    1  UNL1        0.0160
     30 N         142.9076  141.0210  165.3440 N.am    1  UNL1       -0.2515
     31 C         142.5976  141.8428  164.1281 C.2     1  UNL1        0.2740
     32 O         143.2456  141.5146  162.8158 O.2     1  UNL1       -0.2705
     33 C         141.6395  142.9930  164.2246 C.3     1  UNL1        0.2900
     34 O         140.9915  143.3213  165.5370 O.3     1  UNL1       -0.4643
     35 C         142.6798  138.6104  170.2494 C.3     1  UNL1        0.0367
     36 C         142.2316  140.0338  170.4006 C.3     1  UNL1        0.1328
     37 O         142.0933  140.6353  171.7677 O.3     1  UNL1       -0.3801
     38 H         142.3304  139.9746  172.4371 H       1  UNL1        0.2108
@<TRIPOS>BOND
     1    35    36    1
     2    36    37    1
     3    36    24    1
     4    24    25   ar
     5    25    26   ar
     6    26    27   ar
     7    27    28   ar
     8    28    29   ar
     9    28    30    1
    10    30    23    1
    11    23    22    1
    12    22     1    1
    13     1     2    1
    14     2     3    1
    15     3     4    1
    16     4     7    1
    17     7     9    1
    18     9    10    1
    19    10    11   ar
    20    11    12   ar
    21    12    13   ar
    22    13    14   ar
    23    14    15   ar
    24    14    16    1
    25    16    17   am
    26    17    18    2
    27    17    19    1
    28    19    20    1
    29     4     5    1
    30     5     6    1
    31    30    31   am
    32    31    32    2
    33    31    33    1
    34    33    34    1
    35    29    24   ar
    36     6     1    1
    37    34    27    1
    38    15    10   ar
    39    20    13    1
    40    37    38    1
    41     7     8    1
    42    16    21    1
@<TRIPOS>MOLECULE
*****
 38 42 0 0 0
SMALL
GASTEIGER

@<TRIPOS>ATOM
      1 N         138.7983  143.8475  163.2884 N.3     1  UNL1       -0.2711
      2 C         137.8417  142.8527  162.7008 C.3     1  UNL1        0.0735
      3 C         137.5713  141.5608  163.4135 C.3     1  UNL1        0.0331
      4 C         138.2576  141.2637  164.7138 C.3     1  UNL1        0.0570
      5 C         139.2142  142.2585  165.3014 C.3     1  UNL1        0.0331
      6 C         139.4845  143.5504  164.5887 C.3     1  UNL1        0.0735
      7 N         137.9872  139.9718  165.4265 N.3     1  UNL1       -0.2934
      8 H         136.9824  139.8072  165.3667 H       1  UNL1        0.1236
      9 C         138.6604  138.7102  164.9735 C.3     1  UNL1        0.1152
     10 C         140.0122  138.7721  164.3265 C.ar    1  UNL1        0.0765
     11 C         141.2218  139.1085  165.1473 C.ar    1  UNL1        0.0193
     12 C         142.5737  139.1704  164.5004 C.ar    1  UNL1        0.0411
     13 C         142.7160  138.8960  163.0326 C.ar    1  UNL1        0.1708
     14 C         141.5064  138.5596  162.2118 C.ar    1  UNL1        0.1682
     15 N         140.1546  138.4977  162.8587 N.ar    1  UNL1       -0.2304
     16 N         141.6487  138.2851  160.7440 N.am    1  UNL1       -0.2639
     17 C         143.0007  138.3470  160.0970 C.2     1  UNL1        0.2718
     18 O         143.1430  138.0726  158.6292 O.2     1  UNL1       -0.2707
     19 C         144.2102  138.6834  160.9178 C.3     1  UNL1        0.2898
     20 O         144.0679  138.9579  162.3856 O.3     1  UNL1       -0.4628
     21 H         140.8548  138.0643  160.2052 H       1  UNL1        0.1565
     22 C         139.0686  145.1394  162.5757 C.3     1  UNL1        0.0942
     23 C         140.4813  145.5930  162.3554 C.3     1  UNL1        0.1157
     24 C         143.9504  143.2879  164.0587 C.ar    1  UNL1        0.0057
     25 C         144.8542  142.5110  163.1479 C.ar    1  UNL1        0.0012
     26 C         144.6017  142.5025  161.6694 C.ar    1  UNL1        0.0380
     27 C         143.4453  143.2709  161.1016 C.ar    1  UNL1        0.1528
     28 C         142.5415  144.0477  162.0124 C.ar    1  UNL1        0.0879
     29 C         142.7941  144.0562  163.4909 C.ar    1  UNL1        0.0160
     30 N         141.3851  144.8162  161.4446 N.am    1  UNL1       -0.2515
     31 C         141.1325  144.8077  159.9660 C.2     1  UNL1        0.2740
     32 O         139.9762  145.5760  159.3983 O.2     1  UNL1       -0.2705
     33 C         142.0364  144.0307  159.0552 C.3     1  UNL1        0.2900
     34 O         143.1928  143.2624  159.6230 O.3     1  UNL1       -0.4643
     35 C         143.3863  142.4228  166.4427 C.3     1  UNL1        0.0367
     36 C         144.2030  143.2964  165.5373 C.3     1  UNL1        0.1328
     37 O         145.2722  144.1785  166.1104 O.3     1  UNL1       -0.3801
     38 H         145.3041  144.0641  167.0731 H       1  UNL1        0.2108
@<TRIPOS>BOND
     1    35    36    1
     2    36    37    1
     3    36    24    1
     4    24    25   ar
     5    25    26   ar
     6    26    27   ar
     7    27    28   ar
     8    28    29   ar
     9    28    30    1
    10    30    23    1
    11    23    22    1
    12    22     1    1
    13     1     2    1
    14     2     3    1
    15     3     4    1
    16     4     7    1
    17     7     9    1
    18     9    10    1
    19    10    11   ar
    20    11    12   ar
    21    12    13   ar
    22    13    14   ar
    23    14    15   ar
    24    14    16    1
    25    16    17   am
    26    17    18    2
    27    17    19    1
    28    19    20    1
    29     4     5    1
    30     5     6    1
    31    30    31   am
    32    31    32    2
    33    31    33    1
    34    33    34    1
    35    29    24   ar
    36     6     1    1
    37    34    27    1
    38    15    10   ar
    39    20    13    1
    40    37    38    1
    41     7     8    1
    42    16    21    1
@<TRIPOS>MOLECULE
*****
 38 42 0 0 0
SMALL
GASTEIGER

@<TRIPOS>ATOM
      1 N         140.0707  143.7916  163.7781 N.3     1  UNL1       -0.2711
      2 C         141.0339  144.2551  162.7258 C.3     1  UNL1        0.0735
      3 C         142.5065  144.0354  162.9079 C.3     1  UNL1        0.0331
      4 C         143.0159  143.3522  164.1423 C.3     1  UNL1        0.0570
      5 C         142.0526  142.8887  165.1946 C.3     1  UNL1        0.0331
      6 C         140.5801  143.1084  165.0125 C.3     1  UNL1        0.0735
      7 N         144.4885  143.1325  164.3244 N.3     1  UNL1       -0.2934
      8 H         144.7302  143.5035  165.2433 H       1  UNL1        0.1236
      9 C         145.0539  141.7449  164.2552 C.3     1  UNL1        0.1152
     10 C         144.3886  140.7055  163.4026 C.ar    1  UNL1        0.0765
     11 C         143.5939  139.6064  164.0431 C.ar    1  UNL1        0.0193
     12 C         142.9286  138.5670  163.1905 C.ar    1  UNL1        0.0411
     13 C         143.0580  138.6267  161.6973 C.ar    1  UNL1        0.1708
     14 C         143.8527  139.7259  161.0567 C.ar    1  UNL1        0.1682
     15 N         144.5180  140.7653  161.9094 N.ar    1  UNL1       -0.2304
     16 N         143.9821  139.7857  159.5635 N.am    1  UNL1       -0.2639
     17 C         143.3167  138.7463  158.7108 C.2     1  UNL1        0.2718
     18 O         143.4461  138.8060  157.2176 O.2     1  UNL1       -0.2707
     19 C         142.5220  137.6472  159.3514 C.3     1  UNL1        0.2898
     20 O         142.3926  137.5874  160.8446 O.3     1  UNL1       -0.4628
     21 H         144.5037  140.5071  159.1431 H       1  UNL1        0.1565
     22 C         138.5981  144.0114  163.5960 C.3     1  UNL1        0.0942
     23 C         137.6975  142.8493  163.2985 C.3     1  UNL1        0.1157
     24 C         138.4333  138.9792  165.4737 C.ar    1  UNL1        0.0057
     25 C         138.9645  137.7900  164.7297 C.ar    1  UNL1        0.0012
     26 C         139.2505  137.8908  163.2607 C.ar    1  UNL1        0.0380
     27 C         139.0052  139.1808  162.5356 C.ar    1  UNL1        0.1528
     28 C         138.4740  140.3700  163.2796 C.ar    1  UNL1        0.0879
     29 C         138.1880  140.2692  164.7486 C.ar    1  UNL1        0.0160
     30 N         138.2287  141.6601  162.5545 N.am    1  UNL1       -0.2515
     31 C         138.5147  141.7608  161.0855 C.2     1  UNL1        0.2740
     32 O         138.2695  143.0508  160.3604 O.2     1  UNL1       -0.2705
     33 C         139.0460  140.5715  160.3415 C.3     1  UNL1        0.2900
     34 O         139.2912  139.2815  161.0666 O.3     1  UNL1       -0.4643
     35 C         138.9506  139.6842  167.9202 C.3     1  UNL1        0.0367
     36 C         138.1473  138.8785  166.9427 C.3     1  UNL1        0.1328
     37 O         137.0580  137.9720  167.4343 O.3     1  UNL1       -0.3801
     38 H         137.0053  138.0248  168.4014 H       1  UNL1        0.2108
@<TRIPOS>BOND
     1    35    36    1
     2    36    37    1
     3    36    24    1
     4    24    25   ar
     5    25    26   ar
     6    26    27   ar
     7    27    28   ar
     8    28    29   ar
     9    28    30    1
    10    30    23    1
    11    23    22    1
    12    22     1    1
    13     1     2    1
    14     2     3    1
    15     3     4    1
    16     4     7    1
    17     7     9    1
    18     9    10    1
    19    10    11   ar
    20    11    12   ar
    21    12    13   ar
    22    13    14   ar
    23    14    15   ar
    24    14    16    1
    25    16    17   am
    26    17    18    2
    27    17    19    1
    28    19    20    1
    29     4     5    1
    30     5     6    1
    31    30    31   am
    32    31    32    2
    33    31    33    1
    34    33    34    1
    35    29    24   ar
    36     6     1    1
    37    34    27    1
    38    15    10   ar
    39    20    13    1
    40    37    38    1
    41     7     8    1
    42    16    21    1
