@<TRIPOS>MOLECULE
*****
 37 42 0 0 0
SMALL
GASTEIGER

@<TRIPOS>ATOM
      1 C         144.5869  143.1327  161.9326 C.3     1  UNL1        0.0468
      2 C         139.0136  140.3888  158.9119 C.ar    1  UNL1        0.1516
      3 N         138.9552  138.9198  159.2099 N.ar    1  UNL1       -0.2192
      4 C         140.1384  138.5726  160.0640 C.ar    1  UNL1        0.1828
      5 N         140.9281  139.8270  160.2939 N.ar    1  UNL1       -0.2851
      6 C         140.2329  140.9494  159.5819 C.ar    1  UNL1        0.1087
      7 C         140.8001  142.3371  159.6355 C.3     1  UNL1        0.2510
      8 O         142.0624  142.6023  160.4012 O.3     1  UNL1       -0.4678
      9 C         142.7575  141.4798  161.1133 C.ar    1  UNL1        0.1511
     10 C         144.0198  141.7450  161.8790 C.ar    1  UNL1        0.0146
     11 C         144.7150  140.6226  162.5910 C.ar    1  UNL1       -0.0011
     12 C         144.1478  139.2350  162.5373 C.ar    1  UNL1        0.0014
     13 C         142.8855  138.9698  161.7716 C.ar    1  UNL1        0.0206
     14 C         142.1904  140.0922  161.0596 C.ar    1  UNL1        0.0989
     15 C         136.1148  141.2121  156.3295 C.3     1  UNL1        0.1110
     16 N         137.1023  140.4395  157.1529 N.am    1  UNL1       -0.2979
     17 C         138.0261  141.1614  158.0886 C.2     1  UNL1        0.2649
     18 O         137.9624  142.6558  158.2009 O.2     1  UNL1       -0.2684
     19 H         137.1442  139.4586  157.0791 H       1  UNL1        0.1498
     20 C         144.1074  144.0991  162.9748 C.3     1  UNL1        0.0770
     21 N         143.3198  143.6036  164.1513 N.3     1  UNL1       -0.2695
     22 C         144.0189  142.9142  165.2853 C.3     1  UNL1        0.0938
     23 C         143.2313  142.4187  166.4618 C.3     1  UNL1        0.1081
     24 N         141.7445  142.6127  166.5043 N.pl3   1  UNL1       -0.3046
     25 C         141.0453  143.3020  165.3703 C.3     1  UNL1        0.1081
     26 C         141.8329  143.7975  164.1938 C.3     1  UNL1        0.0938
     27 C         140.9568  142.1172  167.6807 C.ar    1  UNL1        0.0493
     28 C         141.1032  142.7847  169.0161 C.ar    1  UNL1        0.0146
     29 C         140.3155  142.2892  170.1926 C.ar    1  UNL1        0.0028
     30 C         139.3815  141.1263  170.0338 C.ar    1  UNL1        0.0192
     31 C         139.2351  140.4589  168.6985 C.ar    1  UNL1        0.0821
     32 N         138.3011  139.2959  168.5397 N.ar    1  UNL1       -0.2496
     33 C         138.1547  138.6285  167.2043 C.ar    1  UNL1        0.0593
     34 C         137.2207  137.4656  167.0455 C.3     1  UNL1        0.0521
     35 C         138.9424  139.1239  166.0278 C.ar    1  UNL1        0.0148
     36 C         139.8764  140.2868  166.1867 C.ar    1  UNL1        0.0039
     37 C         140.0228  140.9543  167.5219 C.ar    1  UNL1        0.0310
@<TRIPOS>BOND
     1    15    16    1
     2    16    17   am
     3    17    18    2
     4    17     2    1
     5     2     3   ar
     6     3     4   ar
     7     4     5   ar
     8     5     6   ar
     9     6     7    1
    10     7     8    1
    11     8     9    1
    12     9    10   ar
    13    10     1    1
    14     1    20    1
    15    20    21    1
    16    21    22    1
    17    22    23    1
    18    23    24    1
    19    24    27    1
    20    27    28   ar
    21    28    29   ar
    22    29    30   ar
    23    30    31   ar
    24    31    32   ar
    25    32    33   ar
    26    33    34    1
    27    33    35   ar
    28    35    36   ar
    29    36    37   ar
    30    24    25    1
    31    25    26    1
    32    10    11   ar
    33    11    12   ar
    34    12    13   ar
    35    13    14   ar
    36     6     2   ar
    37    14     9   ar
    38    14     5    1
    39    26    21    1
    40    37    27   ar
    41    37    31   ar
    42    16    19    1
@<TRIPOS>MOLECULE
*****
 37 42 0 0 0
SMALL
GASTEIGER

@<TRIPOS>ATOM
      1 C         143.8178  137.1819  155.6042 C.3     1  UNL1        0.0468
      2 C         143.2602  130.4692  157.1353 C.ar    1  UNL1        0.1516
      3 N         142.3598  129.8017  156.1383 N.ar    1  UNL1       -0.2192
      4 C         141.9008  130.8413  155.1594 C.ar    1  UNL1        0.1828
      5 N         142.5174  132.1514  155.5512 N.ar    1  UNL1       -0.2851
      6 C         143.3575  131.9213  156.7724 C.ar    1  UNL1        0.1087
      7 C         144.1027  133.0640  157.3962 C.3     1  UNL1        0.2510
      8 O         144.0078  134.4366  156.7989 O.3     1  UNL1       -0.4678
      9 C         143.1676  134.6666  155.5777 C.ar    1  UNL1        0.1511
     10 C         143.0726  136.0393  154.9803 C.ar    1  UNL1        0.0146
     11 C         142.2325  136.2693  153.7592 C.ar    1  UNL1       -0.0011
     12 C         141.4873  135.1267  153.1354 C.ar    1  UNL1        0.0014
     13 C         141.5823  133.7541  153.7328 C.ar    1  UNL1        0.0206
     14 C         142.4224  133.5240  154.9539 C.ar    1  UNL1        0.0989
     15 C         143.8635  128.1834  160.3229 C.3     1  UNL1        0.1110
     16 N         143.1804  128.8509  159.1662 N.am    1  UNL1       -0.2979
     17 C         143.9432  129.8017  158.2919 C.2     1  UNL1        0.2649
     18 O         145.3889  130.0849  158.5743 O.2     1  UNL1       -0.2684
     19 H         142.2316  128.6650  158.9809 H       1  UNL1        0.1498
     20 C         143.0645  138.2862  156.2847 C.3     1  UNL1        0.0770
     21 N         143.1254  138.4270  157.7768 N.3     1  UNL1       -0.2695
     22 C         142.8431  137.2433  158.6540 C.3     1  UNL1        0.0938
     23 C         142.9040  137.3840  160.1461 C.3     1  UNL1        0.1081
     24 N         143.2471  138.7084  160.7611 N.pl3   1  UNL1       -0.3046
     25 C         143.5293  139.8921  159.8840 C.3     1  UNL1        0.1081
     26 C         143.4685  139.7513  158.3918 C.3     1  UNL1        0.0938
     27 C         143.3079  138.8492  162.2532 C.ar    1  UNL1        0.0493
     28 C         144.5685  139.3277  162.9107 C.ar    1  UNL1        0.0146
     29 C         144.6293  139.4684  164.4028 C.ar    1  UNL1        0.0028
     30 C         143.4297  139.1307  165.2375 C.ar    1  UNL1        0.0192
     31 C         142.1692  138.6522  164.5802 C.ar    1  UNL1        0.0821
     32 N         140.9696  138.3145  165.4149 N.ar    1  UNL1       -0.2496
     33 C         139.7090  137.8360  164.7575 C.ar    1  UNL1        0.0593
     34 C         138.5094  137.4983  165.5922 C.3     1  UNL1        0.0521
     35 C         139.6482  137.6952  163.2654 C.ar    1  UNL1        0.0148
     36 C         140.8478  138.0330  162.4306 C.ar    1  UNL1        0.0039
     37 C         142.1083  138.5114  163.0880 C.ar    1  UNL1        0.0310
@<TRIPOS>BOND
     1    15    16    1
     2    16    17   am
     3    17    18    2
     4    17     2    1
     5     2     3   ar
     6     3     4   ar
     7     4     5   ar
     8     5     6   ar
     9     6     7    1
    10     7     8    1
    11     8     9    1
    12     9    10   ar
    13    10     1    1
    14     1    20    1
    15    20    21    1
    16    21    22    1
    17    22    23    1
    18    23    24    1
    19    24    27    1
    20    27    28   ar
    21    28    29   ar
    22    29    30   ar
    23    30    31   ar
    24    31    32   ar
    25    32    33   ar
    26    33    34    1
    27    33    35   ar
    28    35    36   ar
    29    36    37   ar
    30    24    25    1
    31    25    26    1
    32    10    11   ar
    33    11    12   ar
    34    12    13   ar
    35    13    14   ar
    36     6     2   ar
    37    14     9   ar
    38    14     5    1
    39    26    21    1
    40    37    27   ar
    41    37    31   ar
    42    16    19    1
@<TRIPOS>MOLECULE
*****
 37 42 0 0 0
SMALL
GASTEIGER

@<TRIPOS>ATOM
      1 C         142.9530  136.9251  156.9793 C.3     1  UNL1        0.0468
      2 C         143.0764  130.0246  156.6894 C.ar    1  UNL1        0.1516
      3 N         142.3162  129.5608  155.4823 N.ar    1  UNL1       -0.2192
      4 C         141.7984  130.7731  154.7666 C.ar    1  UNL1        0.1828
      5 N         142.2386  131.9861  155.5314 N.ar    1  UNL1       -0.2851
      6 C         143.0284  131.5235  156.7197 C.ar    1  UNL1        0.1087
      7 C         143.6020  132.5269  157.6759 C.3     1  UNL1        0.2510
      8 O         143.3857  133.9930  157.4437 O.3     1  UNL1       -0.4678
      9 C         142.5958  134.4556  156.2553 C.ar    1  UNL1        0.1511
     10 C         142.3795  135.9216  156.0231 C.ar    1  UNL1        0.0146
     11 C         141.5896  136.3843  154.8348 C.ar    1  UNL1       -0.0011
     12 C         141.0161  135.3809  153.8787 C.ar    1  UNL1        0.0014
     13 C         141.2325  133.9148  154.1109 C.ar    1  UNL1        0.0206
     14 C         142.0223  133.4522  155.2992 C.ar    1  UNL1        0.0989
     15 C         144.0045  128.2650  160.1233 C.3     1  UNL1        0.1110
     16 N         143.3170  129.1455  159.1223 N.am    1  UNL1       -0.2979
     17 C         143.7639  129.1440  157.6904 C.2     1  UNL1        0.2649
     18 O         144.8980  128.2621  157.2596 O.2     1  UNL1       -0.2684
     19 H         142.5726  129.7244  159.4051 H       1  UNL1        0.1498
     20 C         142.1813  138.1664  157.3161 C.3     1  UNL1        0.0770
     21 N         141.5565  138.3165  158.6715 N.3     1  UNL1       -0.2695
     22 C         140.0654  138.4128  158.8036 C.3     1  UNL1        0.0938
     23 C         139.4407  138.5629  160.1590 C.3     1  UNL1        0.1081
     24 N         140.3070  138.6168  161.3823 N.pl3   1  UNL1       -0.3046
     25 C         141.7980  138.5206  161.2503 C.3     1  UNL1        0.1081
     26 C         142.4228  138.3704  159.8949 C.3     1  UNL1        0.0938
     27 C         139.6823  138.7670  162.7377 C.ar    1  UNL1        0.0493
     28 C         139.5007  137.5654  163.6172 C.ar    1  UNL1        0.0146
     29 C         138.8760  137.7155  164.9726 C.ar    1  UNL1        0.0028
     30 C         138.4328  139.0672  165.4486 C.ar    1  UNL1        0.0192
     31 C         138.6143  140.2687  164.5692 C.ar    1  UNL1        0.0821
     32 N         138.1711  141.6204  165.0452 N.ar    1  UNL1       -0.2496
     33 C         138.3527  142.8219  164.1658 C.ar    1  UNL1        0.0593
     34 C         137.9095  144.1736  164.6418 C.3     1  UNL1        0.0521
     35 C         138.9774  142.6718  162.8104 C.ar    1  UNL1        0.0148
     36 C         139.4206  141.3201  162.3344 C.ar    1  UNL1        0.0039
     37 C         139.2391  140.1186  163.2137 C.ar    1  UNL1        0.0310
@<TRIPOS>BOND
     1    15    16    1
     2    16    17   am
     3    17    18    2
     4    17     2    1
     5     2     3   ar
     6     3     4   ar
     7     4     5   ar
     8     5     6   ar
     9     6     7    1
    10     7     8    1
    11     8     9    1
    12     9    10   ar
    13    10     1    1
    14     1    20    1
    15    20    21    1
    16    21    22    1
    17    22    23    1
    18    23    24    1
    19    24    27    1
    20    27    28   ar
    21    28    29   ar
    22    29    30   ar
    23    30    31   ar
    24    31    32   ar
    25    32    33   ar
    26    33    34    1
    27    33    35   ar
    28    35    36   ar
    29    36    37   ar
    30    24    25    1
    31    25    26    1
    32    10    11   ar
    33    11    12   ar
    34    12    13   ar
    35    13    14   ar
    36     6     2   ar
    37    14     9   ar
    38    14     5    1
    39    26    21    1
    40    37    27   ar
    41    37    31   ar
    42    16    19    1
@<TRIPOS>MOLECULE
*****
 37 42 0 0 0
SMALL
GASTEIGER

@<TRIPOS>ATOM
      1 C         143.7959  142.8053  159.9721 C.3     1  UNL1        0.0468
      2 C         139.2567  146.1970  156.0215 C.ar    1  UNL1        0.1516
      3 N         138.2913  145.2206  155.4175 N.ar    1  UNL1       -0.2192
      4 C         138.6626  143.8473  155.8931 C.ar    1  UNL1        0.1828
      5 N         139.8573  143.9749  156.7910 N.ar    1  UNL1       -0.2851
      6 C         140.2245  145.4271  156.8703 C.ar    1  UNL1        0.1087
      7 C         141.3927  145.8608  157.7053 C.3     1  UNL1        0.2510
      8 O         142.1938  144.8423  158.4609 O.3     1  UNL1       -0.4678
      9 C         141.8266  143.3901  158.3815 C.ar    1  UNL1        0.1511
     10 C         142.6277  142.3716  159.1371 C.ar    1  UNL1        0.0146
     11 C         142.2605  140.9194  159.0578 C.ar    1  UNL1       -0.0011
     12 C         141.0923  140.4857  158.2228 C.ar    1  UNL1        0.0014
     13 C         140.2913  141.5042  157.4672 C.ar    1  UNL1        0.0206
     14 C         140.6584  142.9564  157.5466 C.ar    1  UNL1        0.0989
     15 C         138.4948  150.0562  156.5468 C.3     1  UNL1        0.1110
     16 N         138.4969  148.5707  156.7551 N.am    1  UNL1       -0.2979
     17 C         139.2545  147.6825  155.8132 C.2     1  UNL1        0.2649
     18 O         140.0099  148.2797  154.6632 O.2     1  UNL1       -0.2684
     19 H         138.0011  148.1788  157.5099 H       1  UNL1        0.1498
     20 C         143.5691  143.3737  161.3416 C.3     1  UNL1        0.0770
     21 N         142.6949  142.6468  162.3200 N.3     1  UNL1       -0.2695
     22 C         141.4280  143.2828  162.8104 C.3     1  UNL1        0.0938
     23 C         140.5538  142.5559  163.7889 C.3     1  UNL1        0.1081
     24 N         140.9464  141.1929  164.2769 N.pl3   1  UNL1       -0.3046
     25 C         142.2133  140.5569  163.7864 C.3     1  UNL1        0.1081
     26 C         143.0875  141.2838  162.8080 C.3     1  UNL1        0.0938
     27 C         140.0722  140.4660  165.2553 C.ar    1  UNL1        0.0493
     28 C         138.9846  139.5595  164.7598 C.ar    1  UNL1        0.0146
     29 C         138.1104  138.8326  165.7382 C.ar    1  UNL1        0.0028
     30 C         138.3238  139.0121  167.2121 C.ar    1  UNL1        0.0192
     31 C         139.4114  139.9185  167.7075 C.ar    1  UNL1        0.0821
     32 N         139.6248  140.0980  169.1814 N.ar    1  UNL1       -0.2496
     33 C         140.7125  141.0045  169.6768 C.ar    1  UNL1        0.0593
     34 C         140.9259  141.1839  171.1507 C.3     1  UNL1        0.0521
     35 C         141.5866  141.7314  168.6984 C.ar    1  UNL1        0.0148
     36 C         141.3732  141.5519  167.2246 C.ar    1  UNL1        0.0039
     37 C         140.2857  140.6455  166.7291 C.ar    1  UNL1        0.0310
@<TRIPOS>BOND
     1    15    16    1
     2    16    17   am
     3    17    18    2
     4    17     2    1
     5     2     3   ar
     6     3     4   ar
     7     4     5   ar
     8     5     6   ar
     9     6     7    1
    10     7     8    1
    11     8     9    1
    12     9    10   ar
    13    10     1    1
    14     1    20    1
    15    20    21    1
    16    21    22    1
    17    22    23    1
    18    23    24    1
    19    24    27    1
    20    27    28   ar
    21    28    29   ar
    22    29    30   ar
    23    30    31   ar
    24    31    32   ar
    25    32    33   ar
    26    33    34    1
    27    33    35   ar
    28    35    36   ar
    29    36    37   ar
    30    24    25    1
    31    25    26    1
    32    10    11   ar
    33    11    12   ar
    34    12    13   ar
    35    13    14   ar
    36     6     2   ar
    37    14     9   ar
    38    14     5    1
    39    26    21    1
    40    37    27   ar
    41    37    31   ar
    42    16    19    1
@<TRIPOS>MOLECULE
*****
 37 42 0 0 0
SMALL
GASTEIGER

@<TRIPOS>ATOM
      1 C         141.9397  140.4484  168.2582 C.3     1  UNL1        0.0468
      2 C         140.9905  138.0519  161.8494 C.ar    1  UNL1        0.1516
      3 N         139.5645  137.6169  161.6840 N.ar    1  UNL1       -0.2192
      4 C         138.8519  137.8611  162.9811 C.ar    1  UNL1        0.1828
      5 N         139.8375  138.4470  163.9483 N.ar    1  UNL1       -0.2851
      6 C         141.1591  138.5649  163.2488 C.ar    1  UNL1        0.1087
      7 C         142.3456  139.1243  163.9766 C.3     1  UNL1        0.2510
      8 O         142.2103  139.5656  165.4038 O.3     1  UNL1       -0.4678
      9 C         140.8885  139.4477  166.1032 C.ar    1  UNL1        0.1511
     10 C         140.7532  139.8890  167.5304 C.ar    1  UNL1        0.0146
     11 C         139.4316  139.7711  168.2299 C.ar    1  UNL1       -0.0011
     12 C         138.2452  139.2118  167.5021 C.ar    1  UNL1        0.0014
     13 C         138.3805  138.7704  166.0749 C.ar    1  UNL1        0.0206
     14 C         139.7022  138.8884  165.3755 C.ar    1  UNL1        0.0989
     15 C         142.8054  138.2633  158.3265 C.3     1  UNL1        0.1110
     16 N         141.7359  138.3297  159.3762 N.am    1  UNL1       -0.2979
     17 C         142.0600  137.9856  160.7998 C.2     1  UNL1        0.2649
     18 O         143.4534  137.5752  161.1737 O.2     1  UNL1       -0.2684
     19 H         140.8214  138.5990  159.1308 H       1  UNL1        0.1498
     20 C         142.3793  141.8595  168.0027 C.3     1  UNL1        0.0770
     21 N         142.0546  142.5214  166.6964 N.3     1  UNL1       -0.2695
     22 C         140.6382  142.8996  166.3789 C.3     1  UNL1        0.0938
     23 C         140.3135  143.5615  165.0726 C.3     1  UNL1        0.1081
     24 N         141.4051  143.8451  164.0837 N.pl3   1  UNL1       -0.3046
     25 C         142.8215  143.4669  164.4011 C.3     1  UNL1        0.1081
     26 C         143.1463  142.8050  165.7075 C.3     1  UNL1        0.0938
     27 C         141.0804  144.5070  162.7774 C.ar    1  UNL1        0.0493
     28 C         140.0424  145.5884  162.7221 C.ar    1  UNL1        0.0146
     29 C         139.7177  146.2503  161.4158 C.ar    1  UNL1        0.0028
     30 C         140.4310  145.8307  160.1647 C.ar    1  UNL1        0.0192
     31 C         141.4690  144.7493  160.2200 C.ar    1  UNL1        0.0821
     32 N         142.1823  144.3298  158.9689 N.ar    1  UNL1       -0.2496
     33 C         143.2203  143.2483  159.0242 C.ar    1  UNL1        0.0593
     34 C         143.9336  142.8288  157.7731 C.3     1  UNL1        0.0521
     35 C         143.5450  142.5865  160.3305 C.ar    1  UNL1        0.0148
     36 C         142.8317  143.0060  161.5815 C.ar    1  UNL1        0.0039
     37 C         141.7937  144.0874  161.5263 C.ar    1  UNL1        0.0310
@<TRIPOS>BOND
     1    15    16    1
     2    16    17   am
     3    17    18    2
     4    17     2    1
     5     2     3   ar
     6     3     4   ar
     7     4     5   ar
     8     5     6   ar
     9     6     7    1
    10     7     8    1
    11     8     9    1
    12     9    10   ar
    13    10     1    1
    14     1    20    1
    15    20    21    1
    16    21    22    1
    17    22    23    1
    18    23    24    1
    19    24    27    1
    20    27    28   ar
    21    28    29   ar
    22    29    30   ar
    23    30    31   ar
    24    31    32   ar
    25    32    33   ar
    26    33    34    1
    27    33    35   ar
    28    35    36   ar
    29    36    37   ar
    30    24    25    1
    31    25    26    1
    32    10    11   ar
    33    11    12   ar
    34    12    13   ar
    35    13    14   ar
    36     6     2   ar
    37    14     9   ar
    38    14     5    1
    39    26    21    1
    40    37    27   ar
    41    37    31   ar
    42    16    19    1
@<TRIPOS>MOLECULE
*****
 37 42 0 0 0
SMALL
GASTEIGER

@<TRIPOS>ATOM
      1 C         138.7746  139.2710  165.8298 C.3     1  UNL1        0.0468
      2 C         141.5310  144.5968  162.4016 C.ar    1  UNL1        0.1516
      3 N         142.7873  145.0396  163.0913 N.ar    1  UNL1       -0.2192
      4 C         142.9945  144.1587  164.2876 C.ar    1  UNL1        0.1828
      5 N         141.8662  143.1715  164.3372 N.ar    1  UNL1       -0.2851
      6 C         140.9618  143.4423  163.1716 C.ar    1  UNL1        0.1087
      7 C         139.7366  142.6026  162.9619 C.3     1  UNL1        0.2510
      8 O         139.4159  141.4920  163.9179 O.3     1  UNL1       -0.4678
      9 C         140.3204  141.2212  165.0835 C.ar    1  UNL1        0.1511
     10 C         139.9997  140.1107  166.0395 C.ar    1  UNL1        0.0146
     11 C         140.9041  139.8399  167.2051 C.ar    1  UNL1       -0.0011
     12 C         142.1292  140.6796  167.4147 C.ar    1  UNL1        0.0014
     13 C         142.4499  141.7901  166.4587 C.ar    1  UNL1        0.0206
     14 C         141.5455  142.0610  165.2932 C.ar    1  UNL1        0.0989
     15 C         141.1221  145.7494  158.6261 C.3     1  UNL1        0.1110
     16 N         141.7065  145.1439  159.8678 N.am    1  UNL1       -0.2979
     17 C         140.9466  145.2023  161.1599 C.2     1  UNL1        0.2649
     18 O         139.6025  145.8662  161.2101 O.2     1  UNL1       -0.2684
     19 H         142.5887  144.7082  159.8348 H       1  UNL1        0.1498
     20 C         138.8297  138.0772  164.9233 C.3     1  UNL1        0.0770
     21 N         139.2652  138.2380  163.4970 N.3     1  UNL1       -0.2695
     22 C         140.6390  137.8045  163.0788 C.3     1  UNL1        0.0938
     23 C         141.0746  137.9653  161.6525 C.3     1  UNL1        0.1081
     24 N         140.1363  138.5596  160.6443 N.pl3   1  UNL1       -0.3046
     25 C         138.7626  138.9931  161.0624 C.3     1  UNL1        0.1081
     26 C         138.3270  138.8323  162.4888 C.3     1  UNL1        0.0938
     27 C         140.5718  138.7204  159.2180 C.ar    1  UNL1        0.0493
     28 C         139.8738  137.9591  158.1302 C.ar    1  UNL1        0.0146
     29 C         140.3093  138.1200  156.7039 C.ar    1  UNL1        0.0028
     30 C         141.4429  139.0421  156.3653 C.ar    1  UNL1        0.0192
     31 C         142.1410  139.8033  157.4529 C.ar    1  UNL1        0.0821
     32 N         143.2745  140.7254  157.1143 N.ar    1  UNL1       -0.2496
     33 C         143.9726  141.4868  158.2021 C.ar    1  UNL1        0.0593
     34 C         145.1062  142.4089  157.8634 C.3     1  UNL1        0.0521
     35 C         143.5371  141.3259  159.6284 C.ar    1  UNL1        0.0148
     36 C         142.4035  140.4038  159.9670 C.ar    1  UNL1        0.0039
     37 C         141.7054  139.6425  158.8794 C.ar    1  UNL1        0.0310
@<TRIPOS>BOND
     1    15    16    1
     2    16    17   am
     3    17    18    2
     4    17     2    1
     5     2     3   ar
     6     3     4   ar
     7     4     5   ar
     8     5     6   ar
     9     6     7    1
    10     7     8    1
    11     8     9    1
    12     9    10   ar
    13    10     1    1
    14     1    20    1
    15    20    21    1
    16    21    22    1
    17    22    23    1
    18    23    24    1
    19    24    27    1
    20    27    28   ar
    21    28    29   ar
    22    29    30   ar
    23    30    31   ar
    24    31    32   ar
    25    32    33   ar
    26    33    34    1
    27    33    35   ar
    28    35    36   ar
    29    36    37   ar
    30    24    25    1
    31    25    26    1
    32    10    11   ar
    33    11    12   ar
    34    12    13   ar
    35    13    14   ar
    36     6     2   ar
    37    14     9   ar
    38    14     5    1
    39    26    21    1
    40    37    27   ar
    41    37    31   ar
    42    16    19    1
@<TRIPOS>MOLECULE
*****
 37 42 0 0 0
SMALL
GASTEIGER

@<TRIPOS>ATOM
      1 C         143.2173  139.0328  156.9090 C.3     1  UNL1        0.0468
      2 C         140.7353  145.0059  159.3334 C.ar    1  UNL1        0.1516
      3 N         140.3290  145.8817  158.1853 N.ar    1  UNL1       -0.2192
      4 C         140.6104  145.1385  156.9132 C.ar    1  UNL1        0.1828
      5 N         141.1907  143.8035  157.2749 N.ar    1  UNL1       -0.2851
      6 C         141.2678  143.7215  158.7706 C.ar    1  UNL1        0.1087
      7 C         141.8131  142.4879  159.4271 C.3     1  UNL1        0.2510
      8 O         142.2812  141.3362  158.5877 O.3     1  UNL1       -0.4678
      9 C         142.2040  141.4182  157.0919 C.ar    1  UNL1        0.1511
     10 C         142.6721  140.2665  156.2525 C.ar    1  UNL1        0.0146
     11 C         142.5949  140.3484  154.7568 C.ar    1  UNL1       -0.0011
     12 C         142.0497  141.5820  154.1004 C.ar    1  UNL1        0.0014
     13 C         141.5816  142.7337  154.9398 C.ar    1  UNL1        0.0206
     14 C         141.6587  142.6518  156.4355 C.ar    1  UNL1        0.0989
     15 C         141.6904  145.4794  163.1561 C.3     1  UNL1        0.1110
     16 N         141.7978  145.1318  161.7009 N.am    1  UNL1       -0.2979
     17 C         140.6279  145.3535  160.7886 C.2     1  UNL1        0.2649
     18 O         139.3508  145.9228  161.3315 O.2     1  UNL1       -0.2684
     19 H         142.6361  144.7582  161.3446 H       1  UNL1        0.1498
     20 C         142.2799  137.9895  157.4407 C.3     1  UNL1        0.0770
     21 N         141.6361  138.1738  158.7829 N.3     1  UNL1       -0.2695
     22 C         142.4639  138.0840  160.0306 C.3     1  UNL1        0.0938
     23 C         141.8201  138.2682  161.3727 C.3     1  UNL1        0.1081
     24 N         140.3483  138.5422  161.4673 N.pl3   1  UNL1       -0.3046
     25 C         139.5205  138.6320  160.2197 C.3     1  UNL1        0.1081
     26 C         140.1643  138.4478  158.8775 C.3     1  UNL1        0.0938
     27 C         139.7045  138.7265  162.8095 C.ar    1  UNL1        0.0493
     28 C         139.4603  137.5395  163.6935 C.ar    1  UNL1        0.0146
     29 C         138.8165  137.7237  165.0357 C.ar    1  UNL1        0.0028
     30 C         138.4167  139.0949  165.4939 C.ar    1  UNL1        0.0192
     31 C         138.6609  140.2819  164.6099 C.ar    1  UNL1        0.0821
     32 N         138.2611  141.6531  165.0681 N.ar    1  UNL1       -0.2496
     33 C         138.5053  142.8402  164.1841 C.ar    1  UNL1        0.0593
     34 C         138.1056  144.2114  164.6423 C.3     1  UNL1        0.0521
     35 C         139.1491  142.6559  162.8419 C.ar    1  UNL1        0.0148
     36 C         139.5489  141.2847  162.3837 C.ar    1  UNL1        0.0039
     37 C         139.3048  140.0977  163.2677 C.ar    1  UNL1        0.0310
@<TRIPOS>BOND
     1    15    16    1
     2    16    17   am
     3    17    18    2
     4    17     2    1
     5     2     3   ar
     6     3     4   ar
     7     4     5   ar
     8     5     6   ar
     9     6     7    1
    10     7     8    1
    11     8     9    1
    12     9    10   ar
    13    10     1    1
    14     1    20    1
    15    20    21    1
    16    21    22    1
    17    22    23    1
    18    23    24    1
    19    24    27    1
    20    27    28   ar
    21    28    29   ar
    22    29    30   ar
    23    30    31   ar
    24    31    32   ar
    25    32    33   ar
    26    33    34    1
    27    33    35   ar
    28    35    36   ar
    29    36    37   ar
    30    24    25    1
    31    25    26    1
    32    10    11   ar
    33    11    12   ar
    34    12    13   ar
    35    13    14   ar
    36     6     2   ar
    37    14     9   ar
    38    14     5    1
    39    26    21    1
    40    37    27   ar
    41    37    31   ar
    42    16    19    1
@<TRIPOS>MOLECULE
*****
 37 42 0 0 0
SMALL
GASTEIGER

@<TRIPOS>ATOM
      1 C         141.0071  144.7511  158.9457 C.3     1  UNL1        0.0468
      2 C         135.9891  141.7794  155.2437 C.ar    1  UNL1        0.1516
      3 N         135.7768  142.5534  153.9765 N.ar    1  UNL1       -0.2192
      4 C         136.7390  143.7041  153.9694 C.ar    1  UNL1        0.1828
      5 N         137.5460  143.6412  155.2323 N.ar    1  UNL1       -0.2851
      6 C         137.0825  142.4517  156.0198 C.ar    1  UNL1        0.1087
      7 C         137.7160  142.1344  157.3420 C.3     1  UNL1        0.2510
      8 O         138.8131  143.0066  157.8765 O.3     1  UNL1       -0.4678
      9 C         139.2766  144.1962  157.0889 C.ar    1  UNL1        0.1511
     10 C         140.3736  145.0684  157.6235 C.ar    1  UNL1        0.0146
     11 C         140.8371  146.2579  156.8360 C.ar    1  UNL1       -0.0011
     12 C         140.2036  146.5752  155.5139 C.ar    1  UNL1        0.0014
     13 C         139.1065  145.7030  154.9794 C.ar    1  UNL1        0.0206
     14 C         138.6430  144.5135  155.7669 C.ar    1  UNL1        0.0989
     15 C         133.2645  139.4418  156.9354 C.3     1  UNL1        0.1110
     16 N         134.0140  140.6721  156.5176 N.am    1  UNL1       -0.2979
     17 C         135.2396  140.5491  155.6615 C.2     1  UNL1        0.2649
     18 O         135.7155  139.1959  155.2231 O.2     1  UNL1       -0.2684
     19 H         133.7016  141.5603  156.8054 H       1  UNL1        0.1498
     20 C         140.3843  145.2518  160.2151 C.3     1  UNL1        0.0770
     21 N         140.6148  144.5190  161.5035 N.3     1  UNL1       -0.2695
     22 C         140.0844  145.0789  162.7901 C.3     1  UNL1        0.0938
     23 C         140.3149  144.3461  164.0784 C.3     1  UNL1        0.1081
     24 N         141.0757  143.0534  164.0802 N.pl3   1  UNL1       -0.3046
     25 C         141.6061  142.4935  162.7937 C.3     1  UNL1        0.1081
     26 C         141.3757  143.2263  161.5053 C.3     1  UNL1        0.0938
     27 C         141.3062  142.3206  165.3685 C.ar    1  UNL1        0.0493
     28 C         142.5123  142.6332  166.2038 C.ar    1  UNL1        0.0146
     29 C         142.7428  141.9004  167.4922 C.ar    1  UNL1        0.0028
     30 C         141.7671  140.8550  167.9453 C.ar    1  UNL1        0.0192
     31 C         140.5611  140.5424  167.1101 C.ar    1  UNL1        0.0821
     32 N         139.5855  139.4970  167.5632 N.ar    1  UNL1       -0.2496
     33 C         138.3793  139.1844  166.7279 C.ar    1  UNL1        0.0593
     34 C         137.4037  138.1390  167.1810 C.3     1  UNL1        0.0521
     35 C         138.1489  139.9172  165.4396 C.ar    1  UNL1        0.0148
     36 C         139.1245  140.9626  164.9864 C.ar    1  UNL1        0.0039
     37 C         140.3306  141.2752  165.8217 C.ar    1  UNL1        0.0310
@<TRIPOS>BOND
     1    15    16    1
     2    16    17   am
     3    17    18    2
     4    17     2    1
     5     2     3   ar
     6     3     4   ar
     7     4     5   ar
     8     5     6   ar
     9     6     7    1
    10     7     8    1
    11     8     9    1
    12     9    10   ar
    13    10     1    1
    14     1    20    1
    15    20    21    1
    16    21    22    1
    17    22    23    1
    18    23    24    1
    19    24    27    1
    20    27    28   ar
    21    28    29   ar
    22    29    30   ar
    23    30    31   ar
    24    31    32   ar
    25    32    33   ar
    26    33    34    1
    27    33    35   ar
    28    35    36   ar
    29    36    37   ar
    30    24    25    1
    31    25    26    1
    32    10    11   ar
    33    11    12   ar
    34    12    13   ar
    35    13    14   ar
    36     6     2   ar
    37    14     9   ar
    38    14     5    1
    39    26    21    1
    40    37    27   ar
    41    37    31   ar
    42    16    19    1
@<TRIPOS>MOLECULE
*****
 37 42 0 0 0
SMALL
GASTEIGER

@<TRIPOS>ATOM
      1 C         142.9255  137.8999  158.8258 C.3     1  UNL1        0.0468
      2 C         143.2789  131.5322  156.1719 C.ar    1  UNL1        0.1516
      3 N         142.5360  131.4910  154.8694 N.ar    1  UNL1       -0.2192
      4 C         141.9791  132.8594  154.6100 C.ar    1  UNL1        0.1828
      5 N         142.3777  133.7463  155.7521 N.ar    1  UNL1       -0.2851
      6 C         143.1810  132.9260  156.7174 C.ar    1  UNL1        0.1087
      7 C         143.7197  133.5543  157.9685 C.3     1  UNL1        0.2510
      8 O         143.4550  135.0028  158.2542 O.3     1  UNL1       -0.4678
      9 C         142.6516  135.8231  157.2889 C.ar    1  UNL1        0.1511
     10 C         142.3869  137.2716  157.5747 C.ar    1  UNL1        0.0146
     11 C         141.5835  138.0919  156.6094 C.ar    1  UNL1       -0.0011
     12 C         141.0449  137.4636  155.3584 C.ar    1  UNL1        0.0014
     13 C         141.3096  136.0151  155.0726 C.ar    1  UNL1        0.0206
     14 C         142.1130  135.1948  156.0379 C.ar    1  UNL1        0.0989
     15 C         144.5476  128.9750  158.9288 C.3     1  UNL1        0.1110
     16 N         143.8324  130.1256  158.2849 N.am    1  UNL1       -0.2979
     17 C         143.9941  130.3816  156.8158 C.2     1  UNL1        0.2649
     18 O         144.8708  129.4870  155.9906 O.2     1  UNL1       -0.2684
     19 H         143.2570  130.7127  158.8265 H       1  UNL1        0.1498
     20 C         142.3294  139.1765  159.3405 C.3     1  UNL1        0.0770
     21 N         141.7551  139.2312  160.7251 N.3     1  UNL1       -0.2695
     22 C         141.0265  140.4585  161.1869 C.3     1  UNL1        0.0938
     23 C         140.4521  140.5132  162.5715 C.3     1  UNL1        0.1081
     24 N         140.6063  139.3408  163.4943 N.pl3   1  UNL1       -0.3046
     25 C         141.3348  138.1136  163.0326 C.3     1  UNL1        0.1081
     26 C         141.9092  138.0588  161.6479 C.3     1  UNL1        0.0938
     27 C         140.0319  139.3955  164.8788 C.ar    1  UNL1        0.0493
     28 C         138.7005  138.7659  165.1640 C.ar    1  UNL1        0.0146
     29 C         138.1261  138.8207  166.5485 C.ar    1  UNL1        0.0028
     30 C         138.8831  139.5049  167.6480 C.ar    1  UNL1        0.0192
     31 C         140.2144  140.1345  167.3630 C.ar    1  UNL1        0.0821
     32 N         140.9713  140.8187  168.4624 N.ar    1  UNL1       -0.2496
     33 C         142.3026  141.4483  168.1773 C.ar    1  UNL1        0.0593
     34 C         143.0596  142.1325  169.2768 C.3     1  UNL1        0.0521
     35 C         142.8770  141.3935  166.7927 C.ar    1  UNL1        0.0148
     36 C         142.1201  140.7093  165.6933 C.ar    1  UNL1        0.0039
     37 C         140.7888  140.0798  165.9783 C.ar    1  UNL1        0.0310
@<TRIPOS>BOND
     1    15    16    1
     2    16    17   am
     3    17    18    2
     4    17     2    1
     5     2     3   ar
     6     3     4   ar
     7     4     5   ar
     8     5     6   ar
     9     6     7    1
    10     7     8    1
    11     8     9    1
    12     9    10   ar
    13    10     1    1
    14     1    20    1
    15    20    21    1
    16    21    22    1
    17    22    23    1
    18    23    24    1
    19    24    27    1
    20    27    28   ar
    21    28    29   ar
    22    29    30   ar
    23    30    31   ar
    24    31    32   ar
    25    32    33   ar
    26    33    34    1
    27    33    35   ar
    28    35    36   ar
    29    36    37   ar
    30    24    25    1
    31    25    26    1
    32    10    11   ar
    33    11    12   ar
    34    12    13   ar
    35    13    14   ar
    36     6     2   ar
    37    14     9   ar
    38    14     5    1
    39    26    21    1
    40    37    27   ar
    41    37    31   ar
    42    16    19    1
