@<TRIPOS>MOLECULE
*****
 36 39 0 0 0
SMALL
GASTEIGER

@<TRIPOS>ATOM
      1 N         139.2738  138.2459  163.6256 N.3     1  UNL1       -0.2673
      2 C         140.7169  137.8457  163.7103 C.3     1  UNL1        0.1035
      3 C         141.5494  138.2840  164.8785 C.3     1  UNL1        0.1470
      4 C         142.3820  138.7224  166.0467 C.3     1  UNL1        0.1035
      5 N         141.7714  139.5610  167.1302 N.3     1  UNL1       -0.2684
      6 C         140.3282  139.9613  167.0455 C.3     1  UNL1        0.1035
      7 C         139.4957  139.5229  165.8773 C.3     1  UNL1        0.1470
      8 C         138.6632  139.0846  164.7091 C.3     1  UNL1        0.1035
      9 O         140.9388  139.1226  165.9620 O.3     1  UNL1       -0.3530
     10 C         138.4411  137.8076  162.4574 C.3     1  UNL1        0.0913
     11 C         138.5041  138.5661  161.1649 C.3     1  UNL1        0.1087
     12 N         138.3602  140.0593  161.1637 N.3     1  UNL1       -0.1779
     13 H         137.6817  140.2891  160.4377 H       1  UNL1        0.1488
     14 S         139.5596  140.9281  160.9262 S.O2    1  UNL1        0.0637
     15 O         139.1069  141.8516  162.0181 O.2     1  UNL1       -0.1529
     16 O         140.0123  140.0047  159.8343 O.2     1  UNL1       -0.1529
     17 C         139.6570  143.5896  159.0403 C.3     1  UNL1        0.0555
     18 C         140.8038  143.0203  159.8218 C.ar    1  UNL1        0.0998
     19 N         142.1967  143.5745  159.8737 N.ar    1  UNL1       -0.1714
     20 N         143.0128  142.6936  160.7727 N.ar    1  UNL1       -0.2372
     21 C         144.4629  142.8788  161.1090 C.3     1  UNL1        0.1548
     22 C         142.1242  141.5951  161.2764 C.ar    1  UNL1        0.1546
     23 CL        142.5297  140.4889  162.2048 Cl      1  UNL1       -0.0603
     24 C         140.7590  141.7970  160.6887 C.ar    1  UNL1        0.1649
     25 C         142.6040  139.9993  168.2984 C.3     1  UNL1        0.0761
     26 C         142.6746  141.4519  168.6661 C.3     1  UNL1        0.0646
     27 C         143.3480  142.4266  167.7460 C.3     1  UNL1        0.2068
     28 O         143.3985  142.1542  166.2718 O.3     1  UNL1       -0.4754
     29 C         142.6330  143.0263  165.3213 C.ar    1  UNL1        0.1386
     30 C         143.3586  144.0265  164.4710 C.ar    1  UNL1        0.0376
     31 C         142.5931  144.8985  163.5205 C.ar    1  UNL1        0.0134
     32 C         141.1020  144.7703  163.4203 C.ar    1  UNL1        0.0686
     33 C         140.3764  143.7701  164.2705 C.ar    1  UNL1        0.0134
     34 C         141.1419  142.8981  165.2210 C.ar    1  UNL1        0.0376
     35 C         140.3364  145.6424  162.4697 C.1     1  UNL1        0.1004
     36 N         139.5710  146.5144  161.5192 N.1     1  UNL1       -0.1908
@<TRIPOS>BOND
     1    17    18    1
     2    18    19   ar
     3    19    20   ar
     4    20    21    1
     5    20    22   ar
     6    22    23    1
     7    22    24   ar
     8    24    14    1
     9    14    15    2
    10    14    16    2
    11    14    12    1
    12    12    11    1
    13    11    10    1
    14    10     1    1
    15     1     2    1
    16     2     3    1
    17     3     4    1
    18     4     5    1
    19     5    25    1
    20    25    26    1
    21    26    27    1
    22    27    28    1
    23    28    29    1
    24    29    30   ar
    25    30    31   ar
    26    31    32   ar
    27    32    35    1
    28    35    36    3
    29    32    33   ar
    30    33    34   ar
    31     5     6    1
    32     6     7    1
    33     7     8    1
    34     7     9    1
    35    24    18   ar
    36     8     1    1
    37     9     3    1
    38    34    29   ar
    39    12    13    1
@<TRIPOS>MOLECULE
*****
 36 39 0 0 0
SMALL
GASTEIGER

@<TRIPOS>ATOM
      1 N         138.1356  139.7607  160.9340 N.3     1  UNL1       -0.2673
      2 C         138.6332  138.4872  161.5506 C.3     1  UNL1        0.1035
      3 C         138.7620  138.3758  163.0409 C.3     1  UNL1        0.1470
      4 C         138.8908  138.2643  164.5312 C.3     1  UNL1        0.1035
      5 N         138.5219  139.4265  165.4049 N.3     1  UNL1       -0.2684
      6 C         138.0242  140.7001  164.7882 C.3     1  UNL1        0.1035
      7 C         137.8954  140.8115  163.2979 C.3     1  UNL1        0.1470
      8 C         137.7667  140.9229  161.8076 C.3     1  UNL1        0.1035
      9 O         138.3931  139.5379  163.9145 O.3     1  UNL1       -0.3530
     10 C         138.0068  139.8722  159.4436 C.3     1  UNL1        0.0913
     11 C         139.2231  140.1230  158.6024 C.3     1  UNL1        0.1087
     12 N         139.9408  141.4370  158.6946 N.3     1  UNL1       -0.1779
     13 H         140.1726  141.7135  157.7405 H       1  UNL1        0.1488
     14 S         141.2038  141.5471  159.4962 S.O2    1  UNL1        0.0637
     15 O         140.7186  142.8394  160.0832 O.2     1  UNL1       -0.1529
     16 O         141.6890  140.2549  158.9092 O.2     1  UNL1       -0.1529
     17 C         143.9583  143.0153  158.5439 C.3     1  UNL1        0.0555
     18 C         143.7329  142.3321  159.8601 C.ar    1  UNL1        0.0998
     19 N         144.7341  142.2038  160.9696 N.ar    1  UNL1       -0.1714
     20 N         144.0868  141.4496  162.0931 N.ar    1  UNL1       -0.2372
     21 C         144.7281  141.0953  163.4021 C.3     1  UNL1        0.1548
     22 C         142.6855  141.1118  161.6779 C.ar    1  UNL1        0.1546
     23 CL        141.6796  140.3605  162.4987 Cl      1  UNL1       -0.0603
     24 C         142.4668  141.6572  160.2978 C.ar    1  UNL1        0.1649
     25 C         138.6506  139.3151  166.8951 C.3     1  UNL1        0.0761
     26 C         139.7472  140.0476  167.6101 C.3     1  UNL1        0.0646
     27 C         140.8593  140.6816  166.8283 C.3     1  UNL1        0.2068
     28 O         141.1102  142.1560  166.9422 O.3     1  UNL1       -0.4754
     29 C         140.7793  143.0640  165.7949 C.ar    1  UNL1        0.1386
     30 C         139.4793  143.8122  165.7815 C.ar    1  UNL1        0.0376
     31 C         139.1484  144.7201  164.6343 C.ar    1  UNL1        0.0134
     32 C         140.1174  144.8798  163.5005 C.ar    1  UNL1        0.0686
     33 C         141.4174  144.1316  163.5139 C.ar    1  UNL1        0.0134
     34 C         141.7483  143.2237  164.6611 C.ar    1  UNL1        0.0376
     35 C         139.7864  145.7877  162.3532 C.1     1  UNL1        0.1004
     36 N         139.4555  146.6957  161.2060 N.1     1  UNL1       -0.1908
@<TRIPOS>BOND
     1    17    18    1
     2    18    19   ar
     3    19    20   ar
     4    20    21    1
     5    20    22   ar
     6    22    23    1
     7    22    24   ar
     8    24    14    1
     9    14    15    2
    10    14    16    2
    11    14    12    1
    12    12    11    1
    13    11    10    1
    14    10     1    1
    15     1     2    1
    16     2     3    1
    17     3     4    1
    18     4     5    1
    19     5    25    1
    20    25    26    1
    21    26    27    1
    22    27    28    1
    23    28    29    1
    24    29    30   ar
    25    30    31   ar
    26    31    32   ar
    27    32    35    1
    28    35    36    3
    29    32    33   ar
    30    33    34   ar
    31     5     6    1
    32     6     7    1
    33     7     8    1
    34     7     9    1
    35    24    18   ar
    36     8     1    1
    37     9     3    1
    38    34    29   ar
    39    12    13    1
@<TRIPOS>MOLECULE
*****
 36 39 0 0 0
SMALL
GASTEIGER

@<TRIPOS>ATOM
      1 N         142.7393  138.4300  160.6482 N.3     1  UNL1       -0.2673
      2 C         143.9683  139.0137  161.2795 C.3     1  UNL1        0.1035
      3 C         144.0837  139.0820  162.7735 C.3     1  UNL1        0.1470
      4 C         144.1992  139.1502  164.2675 C.3     1  UNL1        0.1035
      5 N         143.0856  138.6347  165.1301 N.3     1  UNL1       -0.2684
      6 C         141.8565  138.0509  164.4987 C.3     1  UNL1        0.1035
      7 C         141.7411  137.9827  163.0048 C.3     1  UNL1        0.1470
      8 C         141.6257  137.9145  161.5108 C.3     1  UNL1        0.1035
      9 O         142.9701  138.5664  163.6361 O.3     1  UNL1       -0.3530
     10 C         142.6238  138.3617  159.1541 C.3     1  UNL1        0.0913
     11 C         142.0962  139.5385  158.3881 C.3     1  UNL1        0.1087
     12 N         140.8443  140.2289  158.8422 N.3     1  UNL1       -0.1779
     13 H         140.2872  140.4080  158.0068 H       1  UNL1        0.1488
     14 S         140.9322  141.5259  159.5904 S.O2    1  UNL1        0.0637
     15 O         139.5508  141.3070  160.1323 O.2     1  UNL1       -0.1529
     16 O         142.3136  141.7449  159.0485 O.2     1  UNL1       -0.1529
     17 C         140.1307  144.4684  158.4289 C.3     1  UNL1        0.0555
     18 C         140.6517  144.1756  159.8047 C.ar    1  UNL1        0.0998
     19 N         140.8958  145.1838  160.8881 N.ar    1  UNL1       -0.1714
     20 N         141.4151  144.4544  162.0916 N.ar    1  UNL1       -0.2372
     21 C         141.7915  145.0750  163.4043 C.3     1  UNL1        0.1548
     22 C         141.4919  142.9954  161.7519 C.ar    1  UNL1        0.1546
     23 CL        141.9586  141.9009  162.6653 Cl      1  UNL1       -0.0603
     24 C         141.0202  142.8230  160.3385 C.ar    1  UNL1        0.1649
     25 C         143.2010  138.7029  166.6241 C.3     1  UNL1        0.0761
     26 C         142.7492  139.9319  167.3560 C.3     1  UNL1        0.0646
     27 C         141.7843  139.8123  168.4982 C.3     1  UNL1        0.2068
     28 O         140.3120  139.9640  168.2552 O.3     1  UNL1       -0.4754
     29 C         139.8238  140.7061  167.0464 C.ar    1  UNL1        0.1386
     30 C         140.2169  142.1383  166.8362 C.ar    1  UNL1        0.0376
     31 C         139.7287  142.8803  165.6274 C.ar    1  UNL1        0.0134
     32 C         138.8475  142.1901  164.6289 C.ar    1  UNL1        0.0686
     33 C         138.4544  140.7579  164.8392 C.ar    1  UNL1        0.0134
     34 C         138.9426  140.0159  166.0479 C.ar    1  UNL1        0.0376
     35 C         138.3594  142.9322  163.4201 C.1     1  UNL1        0.1004
     36 N         137.8712  143.6742  162.2114 N.1     1  UNL1       -0.1908
@<TRIPOS>BOND
     1    17    18    1
     2    18    19   ar
     3    19    20   ar
     4    20    21    1
     5    20    22   ar
     6    22    23    1
     7    22    24   ar
     8    24    14    1
     9    14    15    2
    10    14    16    2
    11    14    12    1
    12    12    11    1
    13    11    10    1
    14    10     1    1
    15     1     2    1
    16     2     3    1
    17     3     4    1
    18     4     5    1
    19     5    25    1
    20    25    26    1
    21    26    27    1
    22    27    28    1
    23    28    29    1
    24    29    30   ar
    25    30    31   ar
    26    31    32   ar
    27    32    35    1
    28    35    36    3
    29    32    33   ar
    30    33    34   ar
    31     5     6    1
    32     6     7    1
    33     7     8    1
    34     7     9    1
    35    24    18   ar
    36     8     1    1
    37     9     3    1
    38    34    29   ar
    39    12    13    1
@<TRIPOS>MOLECULE
*****
 36 39 0 0 0
SMALL
GASTEIGER

@<TRIPOS>ATOM
      1 N         143.8007  140.3526  163.4515 N.3     1  UNL1       -0.2673
      2 C         143.6425  139.0131  164.1079 C.3     1  UNL1        0.1035
      3 C         143.2800  138.9281  165.5609 C.3     1  UNL1        0.1470
      4 C         142.9174  138.8430  167.0140 C.3     1  UNL1        0.1035
      5 N         142.7131  140.0974  167.8107 N.3     1  UNL1       -0.2684
      6 C         142.8712  141.4369  167.1543 C.3     1  UNL1        0.1035
      7 C         143.2338  141.5219  165.7013 C.3     1  UNL1        0.1470
      8 C         143.5963  141.6070  164.2482 C.3     1  UNL1        0.1035
      9 O         143.0756  140.1825  166.3576 O.3     1  UNL1       -0.3530
     10 C         144.1632  140.4377  161.9985 C.3     1  UNL1        0.0913
     11 C         144.0093  141.7352  161.2618 C.3     1  UNL1        0.1087
     12 N         142.8684  141.9246  160.3065 N.3     1  UNL1       -0.1779
     13 H         143.1627  142.6318  159.6329 H       1  UNL1        0.1488
     14 S         141.5236  142.3476  160.8187 S.O2    1  UNL1        0.0637
     15 O         141.2024  140.9212  161.1535 O.2     1  UNL1       -0.1529
     16 O         141.8447  143.7740  160.4840 O.2     1  UNL1       -0.1529
     17 C         138.7118  142.2092  159.1681 C.3     1  UNL1        0.0555
     18 C         138.8863  142.7070  160.5723 C.ar    1  UNL1        0.0998
     19 N         137.7990  143.2286  161.4643 N.ar    1  UNL1       -0.1714
     20 N         138.4195  143.6146  162.7743 N.ar    1  UNL1       -0.2372
     21 C         137.6961  144.1837  163.9588 C.3     1  UNL1        0.1548
     22 C         139.8902  143.3316  162.6919 C.ar    1  UNL1        0.1546
     23 CL        140.8958  143.5679  163.7795 Cl      1  UNL1       -0.0603
     24 C         140.1788  142.7706  161.3310 C.ar    1  UNL1        0.1649
     25 C         142.3505  140.0123  169.2637 C.3     1  UNL1        0.0761
     26 C         140.9135  139.8746  169.6713 C.3     1  UNL1        0.0646
     27 C         139.8299  140.4421  168.8032 C.3     1  UNL1        0.2068
     28 O         138.8476  139.5265  168.1351 O.3     1  UNL1       -0.4754
     29 C         138.9827  139.2196  166.6730 C.ar    1  UNL1        0.1386
     30 C         138.4876  137.9110  166.1324 C.ar    1  UNL1        0.0376
     31 C         138.6228  137.6042  164.6703 C.ar    1  UNL1        0.0134
     32 C         139.2531  138.6060  163.7489 C.ar    1  UNL1        0.0686
     33 C         139.7482  139.9147  164.2895 C.ar    1  UNL1        0.0134
     34 C         139.6130  140.2215  165.7515 C.ar    1  UNL1        0.0376
     35 C         139.3883  138.2992  162.2868 C.1     1  UNL1        0.1004
     36 N         139.5235  137.9924  160.8248 N.1     1  UNL1       -0.1908
@<TRIPOS>BOND
     1    17    18    1
     2    18    19   ar
     3    19    20   ar
     4    20    21    1
     5    20    22   ar
     6    22    23    1
     7    22    24   ar
     8    24    14    1
     9    14    15    2
    10    14    16    2
    11    14    12    1
    12    12    11    1
    13    11    10    1
    14    10     1    1
    15     1     2    1
    16     2     3    1
    17     3     4    1
    18     4     5    1
    19     5    25    1
    20    25    26    1
    21    26    27    1
    22    27    28    1
    23    28    29    1
    24    29    30   ar
    25    30    31   ar
    26    31    32   ar
    27    32    35    1
    28    35    36    3
    29    32    33   ar
    30    33    34   ar
    31     5     6    1
    32     6     7    1
    33     7     8    1
    34     7     9    1
    35    24    18   ar
    36     8     1    1
    37     9     3    1
    38    34    29   ar
    39    12    13    1
@<TRIPOS>MOLECULE
*****
 36 39 0 0 0
SMALL
GASTEIGER

@<TRIPOS>ATOM
      1 N         138.3494  139.6286  160.6896 N.3     1  UNL1       -0.2673
      2 C         138.9153  138.3097  161.1258 C.3     1  UNL1        0.1035
      3 C         138.9466  137.9518  162.5821 C.3     1  UNL1        0.1470
      4 C         138.9779  137.5939  164.0385 C.3     1  UNL1        0.1035
      5 N         138.4433  138.5549  165.0586 N.3     1  UNL1       -0.2684
      6 C         137.8774  139.8739  164.6224 C.3     1  UNL1        0.1035
      7 C         137.8462  140.2318  163.1660 C.3     1  UNL1        0.1470
      8 C         137.8149  140.5896  161.7097 C.3     1  UNL1        0.1035
      9 O         138.4120  138.9129  163.6022 O.3     1  UNL1       -0.3530
     10 C         138.3181  139.9865  159.2332 C.3     1  UNL1        0.0913
     11 C         139.4038  140.8395  158.6470 C.3     1  UNL1        0.1087
     12 N         140.8261  140.6482  159.0836 N.3     1  UNL1       -0.1779
     13 H         140.8689  139.7480  159.5614 H       1  UNL1        0.1488
     14 S         141.4733  141.6515  159.9916 S.O2    1  UNL1        0.0637
     15 O         141.2484  142.7238  158.9671 O.2     1  UNL1       -0.1529
     16 O         141.6982  140.5792  161.0161 O.2     1  UNL1       -0.1529
     17 C         144.6046  142.5675  159.9162 C.3     1  UNL1        0.0555
     18 C         143.5598  143.0759  160.8650 C.ar    1  UNL1        0.0998
     19 N         143.7709  144.0945  161.9456 N.ar    1  UNL1       -0.1714
     20 N         142.4621  144.3029  162.6481 N.ar    1  UNL1       -0.2372
     21 C         142.2164  145.2372  163.7957 C.3     1  UNL1        0.1548
     22 C         141.4421  143.4132  162.0017 C.ar    1  UNL1        0.1546
     23 CL        139.9974  143.3014  162.3892 Cl      1  UNL1       -0.0603
     24 C         142.1205  142.6548  160.8996 C.ar    1  UNL1        0.1649
     25 C         138.4746  138.1971  166.5149 C.3     1  UNL1        0.0761
     26 C         138.3481  139.2714  167.5542 C.3     1  UNL1        0.0646
     27 C         139.5423  140.0992  167.9263 C.3     1  UNL1        0.2068
     28 O         139.8741  141.3328  167.1402 O.3     1  UNL1       -0.4754
     29 C         141.1515  141.4019  166.3568 C.ar    1  UNL1        0.1386
     30 C         141.2992  140.6097  165.0917 C.ar    1  UNL1        0.0376
     31 C         142.5765  140.6788  164.3084 C.ar    1  UNL1        0.0134
     32 C         143.7061  141.5402  164.7901 C.ar    1  UNL1        0.0686
     33 C         143.5584  142.3325  166.0552 C.ar    1  UNL1        0.0134
     34 C         142.2811  142.2633  166.8385 C.ar    1  UNL1        0.0376
     35 C         144.9834  141.6093  164.0066 C.1     1  UNL1        0.1004
     36 N         146.2607  141.6784  163.2232 N.1     1  UNL1       -0.1908
@<TRIPOS>BOND
     1    17    18    1
     2    18    19   ar
     3    19    20   ar
     4    20    21    1
     5    20    22   ar
     6    22    23    1
     7    22    24   ar
     8    24    14    1
     9    14    15    2
    10    14    16    2
    11    14    12    1
    12    12    11    1
    13    11    10    1
    14    10     1    1
    15     1     2    1
    16     2     3    1
    17     3     4    1
    18     4     5    1
    19     5    25    1
    20    25    26    1
    21    26    27    1
    22    27    28    1
    23    28    29    1
    24    29    30   ar
    25    30    31   ar
    26    31    32   ar
    27    32    35    1
    28    35    36    3
    29    32    33   ar
    30    33    34   ar
    31     5     6    1
    32     6     7    1
    33     7     8    1
    34     7     9    1
    35    24    18   ar
    36     8     1    1
    37     9     3    1
    38    34    29   ar
    39    12    13    1
@<TRIPOS>MOLECULE
*****
 36 39 0 0 0
SMALL
GASTEIGER

@<TRIPOS>ATOM
      1 N         139.0414  144.4386  161.8881 N.3     1  UNL1       -0.2673
      2 C         139.5988  143.5672  160.8018 C.3     1  UNL1        0.1035
      3 C         139.2042  142.1222  160.7229 C.3     1  UNL1        0.1470
      4 C         138.8097  140.6771  160.6439 C.3     1  UNL1        0.1035
      5 N         137.8578  140.1035  161.6513 N.3     1  UNL1       -0.2684
      6 C         137.3004  140.9749  162.7376 C.3     1  UNL1        0.1035
      7 C         137.6950  142.4199  162.8165 C.3     1  UNL1        0.1470
      8 C         138.0895  143.8649  162.8954 C.3     1  UNL1        0.1035
      9 O         138.2523  141.5486  161.7303 O.3     1  UNL1       -0.3530
     10 C         139.4360  145.8836  161.9670 C.3     1  UNL1        0.0913
     11 C         140.7183  146.2753  162.6394 C.3     1  UNL1        0.1087
     12 N         141.2456  145.4594  163.7823 N.3     1  UNL1       -0.1779
     13 H         141.7373  146.1035  164.4018 H       1  UNL1        0.1488
     14 S         142.1785  144.3147  163.5192 S.O2    1  UNL1        0.0637
     15 O         141.0945  143.3462  163.8890 O.2     1  UNL1       -0.1529
     16 O         143.2625  145.2832  163.1493 O.2     1  UNL1       -0.1529
     17 C         143.1408  143.2601  160.5846 C.3     1  UNL1        0.0555
     18 C         143.5538  142.6853  161.9071 C.ar    1  UNL1        0.0998
     19 N         144.4816  141.5248  162.1129 N.ar    1  UNL1       -0.1714
     20 N         144.6127  141.2923  163.5890 N.ar    1  UNL1       -0.2372
     21 C         145.4446  140.2296  164.2437 C.3     1  UNL1        0.1548
     22 C         143.7659  142.3091  164.2954 C.ar    1  UNL1        0.1546
     23 CL        143.6024  142.4417  165.7805 Cl      1  UNL1       -0.0603
     24 C         143.1115  143.1700  163.2560 C.ar    1  UNL1        0.1649
     25 C         137.4632  138.6585  161.5724 C.3     1  UNL1        0.0761
     26 C         138.3228  137.6102  162.2144 C.3     1  UNL1        0.0646
     27 C         138.9653  137.8775  163.5431 C.3     1  UNL1        0.2068
     28 O         140.2948  138.5690  163.6077 O.3     1  UNL1       -0.4754
     29 C         140.8901  138.9272  164.9372 C.ar    1  UNL1        0.1386
     30 C         140.0821  139.6999  165.9371 C.ar    1  UNL1        0.0376
     31 C         140.6774  140.0580  167.2665 C.ar    1  UNL1        0.0134
     32 C         142.0808  139.6434  167.5959 C.ar    1  UNL1        0.0686
     33 C         142.8889  138.8707  166.5960 C.ar    1  UNL1        0.0134
     34 C         142.2936  138.5126  165.2667 C.ar    1  UNL1        0.0376
     35 C         142.6761  140.0016  168.9254 C.1     1  UNL1        0.1004
     36 N         143.2714  140.3598  170.2548 N.1     1  UNL1       -0.1908
@<TRIPOS>BOND
     1    17    18    1
     2    18    19   ar
     3    19    20   ar
     4    20    21    1
     5    20    22   ar
     6    22    23    1
     7    22    24   ar
     8    24    14    1
     9    14    15    2
    10    14    16    2
    11    14    12    1
    12    12    11    1
    13    11    10    1
    14    10     1    1
    15     1     2    1
    16     2     3    1
    17     3     4    1
    18     4     5    1
    19     5    25    1
    20    25    26    1
    21    26    27    1
    22    27    28    1
    23    28    29    1
    24    29    30   ar
    25    30    31   ar
    26    31    32   ar
    27    32    35    1
    28    35    36    3
    29    32    33   ar
    30    33    34   ar
    31     5     6    1
    32     6     7    1
    33     7     8    1
    34     7     9    1
    35    24    18   ar
    36     8     1    1
    37     9     3    1
    38    34    29   ar
    39    12    13    1
@<TRIPOS>MOLECULE
*****
 36 39 0 0 0
SMALL
GASTEIGER

@<TRIPOS>ATOM
      1 N         141.6467  138.3661  160.8722 N.3     1  UNL1       -0.2673
      2 C         140.1478  138.3756  160.8174 C.3     1  UNL1        0.1035
      3 C         139.3502  138.0964  162.0566 C.3     1  UNL1        0.1470
      4 C         138.5525  137.8172  163.2959 C.3     1  UNL1        0.1035
      5 N         139.2538  137.5284  164.5901 N.3     1  UNL1       -0.2684
      6 C         140.7528  137.5189  164.6449 C.3     1  UNL1        0.1035
      7 C         141.5504  137.7981  163.4056 C.3     1  UNL1        0.1470
      8 C         142.3480  138.0773  162.1663 C.3     1  UNL1        0.1035
      9 O         140.0515  137.8077  163.3507 O.3     1  UNL1       -0.3530
     10 C         142.4444  138.6453  159.6329 C.3     1  UNL1        0.0913
     11 C         142.4978  140.0357  159.0727 C.3     1  UNL1        0.1087
     12 N         142.8898  141.1847  159.9538 N.3     1  UNL1       -0.1779
     13 H         143.3736  140.7869  160.7587 H       1  UNL1        0.1488
     14 S         141.8386  142.1086  160.4936 S.O2    1  UNL1        0.0637
     15 O         142.7396  142.4648  161.6386 O.2     1  UNL1       -0.1529
     16 O         140.9375  141.7523  159.3486 O.2     1  UNL1       -0.1529
     17 C         141.2154  145.1321  159.4356 C.3     1  UNL1        0.0555
     18 C         140.5009  144.4222  160.5471 C.ar    1  UNL1        0.0998
     19 N         139.3745  144.9774  161.3674 N.ar    1  UNL1       -0.1714
     20 N         138.9648  143.9307  162.3608 N.ar    1  UNL1       -0.2372
     21 C         137.8735  144.0629  163.3814 C.3     1  UNL1        0.1548
     22 C         139.8380  142.7287  162.1543 C.ar    1  UNL1        0.1546
     23 CL        139.7732  141.4478  162.9322 Cl      1  UNL1       -0.0603
     24 C         140.7874  143.0324  161.0334 C.ar    1  UNL1        0.1649
     25 C         138.4562  137.2492  165.8293 C.3     1  UNL1        0.0761
     26 C         137.8489  138.3827  166.6017 C.3     1  UNL1        0.0646
     27 C         138.7138  139.5084  167.0863 C.3     1  UNL1        0.2068
     28 O         139.2128  139.5154  168.5008 O.3     1  UNL1       -0.4754
     29 C         140.4482  140.2883  168.8565 C.ar    1  UNL1        0.1386
     30 C         140.9804  141.3268  167.9142 C.ar    1  UNL1        0.0376
     31 C         142.2158  142.0997  168.2699 C.ar    1  UNL1        0.0134
     32 C         142.9188  141.8340  169.5680 C.ar    1  UNL1        0.0686
     33 C         142.3866  140.7955  170.5104 C.ar    1  UNL1        0.0134
     34 C         141.1512  140.0226  170.1547 C.ar    1  UNL1        0.0376
     35 C         144.1542  142.6069  169.9238 C.1     1  UNL1        0.1004
     36 N         145.3896  143.3798  170.2795 N.1     1  UNL1       -0.1908
@<TRIPOS>BOND
     1    17    18    1
     2    18    19   ar
     3    19    20   ar
     4    20    21    1
     5    20    22   ar
     6    22    23    1
     7    22    24   ar
     8    24    14    1
     9    14    15    2
    10    14    16    2
    11    14    12    1
    12    12    11    1
    13    11    10    1
    14    10     1    1
    15     1     2    1
    16     2     3    1
    17     3     4    1
    18     4     5    1
    19     5    25    1
    20    25    26    1
    21    26    27    1
    22    27    28    1
    23    28    29    1
    24    29    30   ar
    25    30    31   ar
    26    31    32   ar
    27    32    35    1
    28    35    36    3
    29    32    33   ar
    30    33    34   ar
    31     5     6    1
    32     6     7    1
    33     7     8    1
    34     7     9    1
    35    24    18   ar
    36     8     1    1
    37     9     3    1
    38    34    29   ar
    39    12    13    1
@<TRIPOS>MOLECULE
*****
 36 39 0 0 0
SMALL
GASTEIGER

@<TRIPOS>ATOM
      1 N         142.2178  138.3853  161.0489 N.3     1  UNL1       -0.2673
      2 C         140.7428  138.4848  160.7953 C.3     1  UNL1        0.1035
      3 C         139.7708  138.2016  161.9020 C.3     1  UNL1        0.1470
      4 C         138.7986  137.9184  163.0087 C.3     1  UNL1        0.1035
      5 N         139.3016  137.5357  164.3691 N.3     1  UNL1       -0.2684
      6 C         140.7767  137.4362  164.6227 C.3     1  UNL1        0.1035
      7 C         141.7487  137.7194  163.5160 C.3     1  UNL1        0.1470
      8 C         142.7208  138.0026  162.4093 C.3     1  UNL1        0.1035
      9 O         140.2737  137.8189  163.2623 O.3     1  UNL1       -0.3530
     10 C         143.1900  138.6685  159.9422 C.3     1  UNL1        0.0913
     11 C         143.7050  140.0619  159.7345 C.3     1  UNL1        0.1087
     12 N         144.6861  140.6512  160.7042 N.3     1  UNL1       -0.1779
     13 H         145.2958  139.8908  161.0049 H       1  UNL1        0.1488
     14 S         144.1952  141.3304  161.9483 S.O2    1  UNL1        0.0637
     15 O         145.5860  141.3073  162.5096 O.2     1  UNL1       -0.1529
     16 O         142.8044  141.3534  161.3870 O.2     1  UNL1       -0.1529
     17 C         143.1489  144.4139  162.1648 C.3     1  UNL1        0.0555
     18 C         143.2235  143.4269  163.2919 C.ar    1  UNL1        0.0998
     19 N         142.8301  143.6840  164.7164 N.ar    1  UNL1       -0.1714
     20 N         143.0680  142.4255  165.4972 N.ar    1  UNL1       -0.2372
     21 C         142.8107  142.2353  166.9627 C.3     1  UNL1        0.1548
     22 C         143.6083  141.3907  164.5553 C.ar    1  UNL1        0.1546
     23 CL        143.9862  139.9840  164.9135 Cl      1  UNL1       -0.0603
     24 C         143.7044  142.0096  163.1923 C.ar    1  UNL1        0.1649
     25 C         138.3295  137.2526  165.4758 C.3     1  UNL1        0.0761
     26 C         138.0683  138.2892  166.5281 C.3     1  UNL1        0.0646
     27 C         138.1157  139.7459  166.1740 C.3     1  UNL1        0.2068
     28 O         139.4258  140.3932  165.8357 O.3     1  UNL1       -0.4754
     29 C         139.4556  141.6204  164.9735 C.ar    1  UNL1        0.1386
     30 C         139.7156  141.4967  163.5014 C.ar    1  UNL1        0.0376
     31 C         139.7454  142.7238  162.6394 C.ar    1  UNL1        0.0134
     32 C         139.5151  144.0747  163.2494 C.ar    1  UNL1        0.0686
     33 C         139.2552  144.1984  164.7215 C.ar    1  UNL1        0.0134
     34 C         139.2254  142.9713  165.5835 C.ar    1  UNL1        0.0376
     35 C         139.5449  145.3019  162.3873 C.1     1  UNL1        0.1004
     36 N         139.5747  146.5290  161.5251 N.1     1  UNL1       -0.1908
@<TRIPOS>BOND
     1    17    18    1
     2    18    19   ar
     3    19    20   ar
     4    20    21    1
     5    20    22   ar
     6    22    23    1
     7    22    24   ar
     8    24    14    1
     9    14    15    2
    10    14    16    2
    11    14    12    1
    12    12    11    1
    13    11    10    1
    14    10     1    1
    15     1     2    1
    16     2     3    1
    17     3     4    1
    18     4     5    1
    19     5    25    1
    20    25    26    1
    21    26    27    1
    22    27    28    1
    23    28    29    1
    24    29    30   ar
    25    30    31   ar
    26    31    32   ar
    27    32    35    1
    28    35    36    3
    29    32    33   ar
    30    33    34   ar
    31     5     6    1
    32     6     7    1
    33     7     8    1
    34     7     9    1
    35    24    18   ar
    36     8     1    1
    37     9     3    1
    38    34    29   ar
    39    12    13    1
@<TRIPOS>MOLECULE
*****
 36 39 0 0 0
SMALL
GASTEIGER

@<TRIPOS>ATOM
      1 N         140.2967  139.2261  161.3208 N.3     1  UNL1       -0.2673
      2 C         140.1478  137.9652  162.1194 C.3     1  UNL1        0.1035
      3 C         140.8267  137.8360  163.4506 C.3     1  UNL1        0.1470
      4 C         141.5058  137.7067  164.7819 C.3     1  UNL1        0.1035
      5 N         142.3337  138.8384  165.3146 N.3     1  UNL1       -0.2684
      6 C         142.4827  140.0994  164.5159 C.3     1  UNL1        0.1035
      7 C         141.8037  140.2286  163.1846 C.3     1  UNL1        0.1470
      8 C         141.1247  140.3578  161.8534 C.3     1  UNL1        0.1035
      9 O         141.6547  138.9677  163.9832 O.3     1  UNL1       -0.3530
     10 C         139.6177  139.3553  159.9895 C.3     1  UNL1        0.0913
     11 C         140.4036  139.7811  158.7849 C.3     1  UNL1        0.1087
     12 N         141.7459  139.1702  158.5108 N.3     1  UNL1       -0.1779
     13 H         141.9918  138.6185  159.3328 H       1  UNL1        0.1488
     14 S         142.9234  140.0500  158.2118 S.O2    1  UNL1        0.0637
     15 O         142.0361  140.9713  157.4285 O.2     1  UNL1       -0.1529
     16 O         143.8107  139.1286  158.9952 O.2     1  UNL1       -0.1529
     17 C         143.8578  142.6566  159.9387 C.3     1  UNL1        0.0555
     18 C         144.5304  142.1279  158.7066 C.ar    1  UNL1        0.0998
     19 N         145.7506  142.7046  158.0520 N.ar    1  UNL1       -0.1714
     20 N         146.0752  141.8628  156.8536 N.ar    1  UNL1       -0.2372
     21 C         147.2187  142.0798  155.9073 C.3     1  UNL1        0.1548
     22 C         145.0557  140.7659  156.7676 C.ar    1  UNL1        0.1546
     23 CL        145.0006  139.6935  155.7203 Cl      1  UNL1       -0.0603
     24 C         144.1009  140.9298  157.9129 C.ar    1  UNL1        0.1649
     25 C         143.0127  138.7093  166.6458 C.3     1  UNL1        0.0761
     26 C         142.8465  139.7831  167.6799 C.3     1  UNL1        0.0646
     27 C         141.8741  139.5954  168.8064 C.3     1  UNL1        0.2068
     28 O         140.5288  140.2566  168.7539 O.3     1  UNL1       -0.4754
     29 C         139.8596  140.4915  167.4321 C.ar    1  UNL1        0.1386
     30 C         140.0677  141.7874  166.7059 C.ar    1  UNL1        0.0376
     31 C         139.3986  142.0222  165.3842 C.ar    1  UNL1        0.0134
     32 C         138.5212  140.9612  164.7887 C.ar    1  UNL1        0.0686
     33 C         138.3131  139.6654  165.5149 C.ar    1  UNL1        0.0134
     34 C         138.9822  139.4306  166.8366 C.ar    1  UNL1        0.0376
     35 C         137.8521  141.1962  163.4668 C.1     1  UNL1        0.1004
     36 N         137.1829  141.4311  162.1451 N.1     1  UNL1       -0.1908
@<TRIPOS>BOND
     1    17    18    1
     2    18    19   ar
     3    19    20   ar
     4    20    21    1
     5    20    22   ar
     6    22    23    1
     7    22    24   ar
     8    24    14    1
     9    14    15    2
    10    14    16    2
    11    14    12    1
    12    12    11    1
    13    11    10    1
    14    10     1    1
    15     1     2    1
    16     2     3    1
    17     3     4    1
    18     4     5    1
    19     5    25    1
    20    25    26    1
    21    26    27    1
    22    27    28    1
    23    28    29    1
    24    29    30   ar
    25    30    31   ar
    26    31    32   ar
    27    32    35    1
    28    35    36    3
    29    32    33   ar
    30    33    34   ar
    31     5     6    1
    32     6     7    1
    33     7     8    1
    34     7     9    1
    35    24    18   ar
    36     8     1    1
    37     9     3    1
    38    34    29   ar
    39    12    13    1
